================================================================================
Financial Reports Discovery
================================================================================
Started at: 2025-05-14 13:48:44
Input file: ../challenge/discovery-clean.csv
Output file: discovery.csv
Batch size: 5
================================================================================
Processing 200 companies...
Companies to process: ADECCO GROUP AG, JOHNSON CONTROLS INTERNATIONAL PUBLIC LIMITED COMPANY, MAGNA INTERNATIONAL INC, PUBLICIS GROUPE S A, GEBR. KNAUF, BRIDGESTONE CORPORATION, FERRERO, SUMITOMO CORPORATION, COMPAGNIE DE SAINT GOBAIN, ABBOTT LABORATORIES, BP P.L.C., ENGIE, DENTSU GROUP INC., THYSSENKRUPP, VOESTALPINE GROUP, ORANGE, ORACLE CORP, ACCOR, PROCTER & GAMBLE CO, FCC, SOCIETE NATIONALE SNCF, ATLAS COPCO AKTIEBOLAG, AKTIEBOLAGET SKF, JOHN WOOD GROUP PLC, FUJITSU LIMITED, CRH PLC, DEUTSCHE BAHN, CARGILL, WARNER BROS. DISCOVERY INC., GENERAL ELECTRIC COMPANY, SAFRAN, BASF, APTIV PLC, WPP PLC, GI GROUP, ACCIONA, FLETCHER GROUP, SODEXO, ADVANCE PROPERTIES, AKZO NOBEL NV, DIOR, AMAZON, SONY GROUP CORPORATION, SONOVA, IKEA, SECURITAS AB, AIRBUS SE, ETEX, SIEMENS, VODAFONE GROUP PLC, HBIS GROUP CO. LTD., MOL HUNGARIAN OIL AND GAS, DSV A/S, KRONES, KONECRANES, SANDVIK AKTIEBOLAG, SKANSKA AB, SANOFI, WURTH, AKTIEBOLAGET VOLVO, TOTALENERGIES SE, BRITISH AMERICAN TOBACCO PLC, NIPPON STEEL CORPORATION, KONINKLIJKE AHOLD DELHAIZE NV, PFIZER INC, COCA-COLA COMPANY (THE), CATERPILLAR INC, HARTMANN, IWG PLC, SAP, ORKLA ASA, ENEL SPA, SHV HOLDINGS NV, BMW, THALES, SIGNIFY NV, 3I GROUP PLC, BAYER, AKTIEBOLAGET ELECTROLUX, VEOLIA ENVIRONNEMENT, TUI, ASSA ABLOY AB, RANDSTAD NV, NV BEKAERT SA, MANPOWERGROUP INC., PARAMOUNT GLOBAL, GLENCORE PLC, DEUTSCHE LUFTHANSA, TELEFONAKTIEBOLAGET LM ERICSSON, ABB LTD, HP INC., CAPGEMINI, MERCK GROUP, BPOST, SYNLAB, L AIR LIQUIDE, MOEVE, GOODYEAR TIRE & RUBBER CO, BROOKFIELD CORPORATION, UMICORE, KONE, MICROSOFT CORPORATION, GSK PLC, NOKIA, MONDELEZ INTERNATIONAL INC., TELEFONICA, ENI S P A, ARCELORMITTAL, HEIDELBERGCEMENT, INTERNATIONAL BUSINESS MACHINES CORP(IBM), MEDTRONIC PLC, NESTLE S.A., SODIM, META PLATFORMS INC., NOVOMATIC GROUP, HUSQVARNA AB, WALT DISNEY COMPANY (THE), RETHMANN, MITSUI & CO LTD, JBS S.A., H & M HENNES & MAURITZ, MERCEDES-BENZ GROUP, PEPSICO INC, COMPASS GROUP PLC, ATOS SE, VOLKSWAGEN, TOYOTA MOTOR CORPORATION, DEUTSCHE TELEKOM, ITOCHU CORPORATION, ALSTOM, DANONE, THERMO FISHER SCIENTIFIC INC., NIPPON TELEGRAPH AND TELEPHONE CORPORATION, ZHEJIANG GEELY HOLDING GROUP CO LTD, DEUTSCHE POST, ACCENTURE PLC, SCHAEFFLER, SINOCHEM, BOUYGUES, EDP, NOVARTIS AG, EXXON MOBIL CORP, HENKEL KGAA, D IETEREN GROUP, HEINEKEN, INDITEX, IBERDROLA, JOHN SWIRE & SONS LIMITED, ESSITY, LEONARDO SOCIETA PER AZIONI, BOSCH, DELL TECHNOLOGIES INC., INTERTEK GROUP PLC, ESSILORLUXOTTICA, ALPHABET INC., MARUBENI CORPORATION, RELX PLC, BOLLORE PARTICIPATIONS SE, JOHNSON & JOHNSON, CARREFOUR, ALFA LAVAL AB, SGS, COMPAGNIE GENERALE DES ETABLISSEMENTS MICHELIN, HITACHI LTD, HOLCIM AG, SCHNEIDER ELECTRIC SE, EUROFINS SCIENTIFIC, REPSOL, ANHEUSER-BUSCH INBEV, SAMSUNG ELECTRONICS CO. LTD., NOVO NORDISK, SOLVAY, BERTELSMANN STIFTUNG, ASTRAZENECA PLC, ISS A/S, WIENERBERGER GROUP, VESTAS WIND SYSTEMS A/S, YARA INTERNATIONAL ASA, MITSUBISHI CORPORATION, ZF FRIEDRICHSHAFEN, KRKA TOVARNA ZDRAVIL DD NOVO MESTO, PRYSMIAN S.P.A., CANON INCORPORATED, STANLEY BLACK & DECKER INC., NORSK HYDRO ASA, EDIZIONE, VINCI, KUEHNE NAGEL, STRABAG GROUP, ATLAS UK BIDCO LIMITED, UNILEVER PLC, PROSEGUR, EATON CORPORATION PLC, ANDRITZ GROUP, ASSECO, ELECTRICITE DE FRANCE, A.P. MOLLER - MAERSK, L OREAL, CARLSBERG A/S, STELLANTIS

Processing batch 1 of 40
Companies in this batch: ADECCO GROUP AG, JOHNSON CONTROLS INTERNATIONAL PUBLIC LIMITED COMPANY, MAGNA INTERNATIONAL INC, PUBLICIS GROUPE S A, GEBR. KNAUF
================================================================================
STARTING COMPANY: ADECCO GROUP AG
Current time: 2025-05-14 13:48:44
================================================================================
Processing company 1/1: ADECCO GROUP AG
Attempt 1/3 for ADECCO GROUP AG

Processing: ADECCO GROUP AG
Searching for: ADECCO GROUP AG annual report pdf
Sending search request to DuckDuckGo for: ADECCO GROUP AG annual report pdf
[SUCCESS] Search request successful. Processing results...
[FILTER] Skipping non-European domain: https://kyodonewsprwire.jp/release/202503125628
[SUCCESS] Found 9 results after filtering
Checking page: https://www.adeccogroup.com/-/media/project/adecco-group/adeccogroup/pdf-files/2025-march/the-adecco-group-annual-report-2024.pdf
Sending HEAD request to: https://www.adeccogroup.com/-/media/project/adecco-group/adeccogroup/pdf-files/2025-march/the-adecco-group-annual-report-2024.pdf/annual-report-2025.pdf
[STRATEGY] HEAD request failed with status 302, trying GET request...
Sending HEAD request to: https://www.adeccogroup.com/-/media/project/adecco-group/adeccogroup/pdf-files/2025-march/the-adecco-group-annual-report-2024.pdf/annual-report-2024.pdf
[STRATEGY] HEAD request failed with status 302, trying GET request...
Sending HEAD request to: https://www.adeccogroup.com/-/media/project/adecco-group/adeccogroup/pdf-files/2025-march/the-adecco-group-annual-report-2024.pdf/annual_report_2025.pdf
[STRATEGY] HEAD request failed with status 302, trying GET request...
Sending HEAD request to: https://www.adeccogroup.com/-/media/project/adecco-group/adeccogroup/pdf-files/2025-march/the-adecco-group-annual-report-2024.pdf/annual_report_2024.pdf
[STRATEGY] HEAD request failed with status 302, trying GET request...
Sending HEAD request to: https://www.adeccogroup.com/-/media/project/adecco-group/adeccogroup/pdf-files/2025-march/the-adecco-group-annual-report-2024.pdf/financial-report-2025.pdf
[STRATEGY] HEAD request failed with status 302, trying GET request...
Sending HEAD request to: https://www.adeccogroup.com/-/media/project/adecco-group/adeccogroup/pdf-files/2025-march/the-adecco-group-annual-report-2024.pdf/financial-report-2024.pdf
[STRATEGY] HEAD request failed with status 302, trying GET request...
Checking page: https://www.adecco-jobs.com/-/media/project/adeccogroup/pdf-files/2024-march/the-adecco-group-annual-report-2023.pdf/
Sending HEAD request to: https://www.adecco-jobs.com/-/media/project/adeccogroup/pdf-files/2024-march/the-adecco-group-annual-report-2023.pdf/annual-report-2025.pdf
[STRATEGY] HEAD request failed with status 301, trying GET request...
[SUCCESS] GET request successful
[SUCCESS] Found common pattern match: https://www.adecco-jobs.com/-/media/project/adeccogroup/pdf-files/2024-march/the-adecco-group-annual-report-2023.pdf/annual-report-2025.pdf
Sending HEAD request to: https://www.adecco-jobs.com/-/media/project/adeccogroup/pdf-files/2024-march/the-adecco-group-annual-report-2023.pdf/annual-report-2024.pdf
[STRATEGY] HEAD request failed with status 301, trying GET request...
[SUCCESS] GET request successful
[SUCCESS] Found common pattern match: https://www.adecco-jobs.com/-/media/project/adeccogroup/pdf-files/2024-march/the-adecco-group-annual-report-2023.pdf/annual-report-2024.pdf
Sending HEAD request to: https://www.adecco-jobs.com/-/media/project/adeccogroup/pdf-files/2024-march/the-adecco-group-annual-report-2023.pdf/annual_report_2025.pdf
[STRATEGY] HEAD request failed with status 301, trying GET request...
[SUCCESS] GET request successful
[SUCCESS] Found common pattern match: https://www.adecco-jobs.com/-/media/project/adeccogroup/pdf-files/2024-march/the-adecco-group-annual-report-2023.pdf/annual_report_2025.pdf
Sending HEAD request to: https://www.adecco-jobs.com/-/media/project/adeccogroup/pdf-files/2024-march/the-adecco-group-annual-report-2023.pdf/annual_report_2024.pdf
[STRATEGY] HEAD request failed with status 301, trying GET request...
[SUCCESS] GET request successful
[SUCCESS] Found common pattern match: https://www.adecco-jobs.com/-/media/project/adeccogroup/pdf-files/2024-march/the-adecco-group-annual-report-2023.pdf/annual_report_2024.pdf
Sending HEAD request to: https://www.adecco-jobs.com/-/media/project/adeccogroup/pdf-files/2024-march/the-adecco-group-annual-report-2023.pdf/financial-report-2025.pdf
[STRATEGY] HEAD request failed with status 301, trying GET request...
[SUCCESS] GET request successful
[SUCCESS] Found common pattern match: https://www.adecco-jobs.com/-/media/project/adeccogroup/pdf-files/2024-march/the-adecco-group-annual-report-2023.pdf/financial-report-2025.pdf
Sending HEAD request to: https://www.adecco-jobs.com/-/media/project/adeccogroup/pdf-files/2024-march/the-adecco-group-annual-report-2023.pdf/financial-report-2024.pdf
[STRATEGY] HEAD request failed with status 301, trying GET request...
[SUCCESS] GET request successful
[SUCCESS] Found common pattern match: https://www.adecco-jobs.com/-/media/project/adeccogroup/pdf-files/2024-march/the-adecco-group-annual-report-2023.pdf/financial-report-2024.pdf
Checking page: https://en.fescoadecco.com/index.php/public/pdf?file=/mkt/pdf/The%20Adecco%20Group%202024%20Annual%20Report.pdf
Sending HEAD request to: https://en.fescoadecco.com/index.php/public/pdf?file=/mkt/pdf/The%20Adecco%20Group%202024%20Annual%20Report.pdf/annual-report-2025.pdf
[SUCCESS] Found common pattern match: https://en.fescoadecco.com/index.php/public/pdf?file=/mkt/pdf/The%20Adecco%20Group%202024%20Annual%20Report.pdf/annual-report-2025.pdf
Sending HEAD request to: https://en.fescoadecco.com/index.php/public/pdf?file=/mkt/pdf/The%20Adecco%20Group%202024%20Annual%20Report.pdf/annual-report-2024.pdf
[SUCCESS] Found common pattern match: https://en.fescoadecco.com/index.php/public/pdf?file=/mkt/pdf/The%20Adecco%20Group%202024%20Annual%20Report.pdf/annual-report-2024.pdf
Sending HEAD request to: https://en.fescoadecco.com/index.php/public/pdf?file=/mkt/pdf/The%20Adecco%20Group%202024%20Annual%20Report.pdf/annual_report_2025.pdf
[SUCCESS] Found common pattern match: https://en.fescoadecco.com/index.php/public/pdf?file=/mkt/pdf/The%20Adecco%20Group%202024%20Annual%20Report.pdf/annual_report_2025.pdf
Sending HEAD request to: https://en.fescoadecco.com/index.php/public/pdf?file=/mkt/pdf/The%20Adecco%20Group%202024%20Annual%20Report.pdf/annual_report_2024.pdf
[SUCCESS] Found common pattern match: https://en.fescoadecco.com/index.php/public/pdf?file=/mkt/pdf/The%20Adecco%20Group%202024%20Annual%20Report.pdf/annual_report_2024.pdf
Sending HEAD request to: https://en.fescoadecco.com/index.php/public/pdf?file=/mkt/pdf/The%20Adecco%20Group%202024%20Annual%20Report.pdf/financial-report-2025.pdf
[SUCCESS] Found common pattern match: https://en.fescoadecco.com/index.php/public/pdf?file=/mkt/pdf/The%20Adecco%20Group%202024%20Annual%20Report.pdf/financial-report-2025.pdf
Sending HEAD request to: https://en.fescoadecco.com/index.php/public/pdf?file=/mkt/pdf/The%20Adecco%20Group%202024%20Annual%20Report.pdf/financial-report-2024.pdf
[SUCCESS] Found common pattern match: https://en.fescoadecco.com/index.php/public/pdf?file=/mkt/pdf/The%20Adecco%20Group%202024%20Annual%20Report.pdf/financial-report-2024.pdf
Found 12 reports for ADECCO GROUP AG:
  1. https://www.adecco-jobs.com/-/media/project/adeccogroup/pdf-files/2024-march/the-adecco-group-annual-report-2023.pdf/annual-report-2025.pdf (Year: 2024, Score: 4)
  2. https://www.adecco-jobs.com/-/media/project/adeccogroup/pdf-files/2024-march/the-adecco-group-annual-report-2023.pdf/annual-report-2024.pdf (Year: 2024, Score: 4)
  3. https://www.adecco-jobs.com/-/media/project/adeccogroup/pdf-files/2024-march/the-adecco-group-annual-report-2023.pdf/annual_report_2025.pdf (Year: 2024, Score: 4)
  4. https://www.adecco-jobs.com/-/media/project/adeccogroup/pdf-files/2024-march/the-adecco-group-annual-report-2023.pdf/annual_report_2024.pdf (Year: 2024, Score: 4)
  5. https://www.adecco-jobs.com/-/media/project/adeccogroup/pdf-files/2024-march/the-adecco-group-annual-report-2023.pdf/financial-report-2025.pdf (Year: 2024, Score: 4)
Results saved to results/financial_reports.csv
Completed processing ADECCO GROUP AG, found 6 reports
Results saved to results/financial_reports.csv
================================================================================
COMPLETED COMPANY: ADECCO GROUP AG
Current time: 2025-05-14 13:49:25
================================================================================
================================================================================
STARTING COMPANY: JOHNSON CONTROLS INTERNATIONAL PUBLIC LIMITED COMPANY
Current time: 2025-05-14 13:49:25
================================================================================
Processing company 1/1: JOHNSON CONTROLS INTERNATIONAL PUBLIC LIMITED COMPANY
Attempt 1/3 for JOHNSON CONTROLS INTERNATIONAL PUBLIC LIMITED COMPANY

Processing: JOHNSON CONTROLS INTERNATIONAL PUBLIC LIMITED COMPANY
Searching for: JOHNSON CONTROLS INTERNATIONAL PUBLIC LIMITED COMPANY annual report pdf
Sending search request to DuckDuckGo for: JOHNSON CONTROLS INTERNATIONAL PUBLIC LIMITED COMPANY annual report pdf
[SUCCESS] Search request successful. Processing results...
[FILTER] Skipping non-European domain: https://www.sec.gov/Archives/edgar/data/833444/000000000024001029/filename1.pdf
[SUCCESS] Found 9 results after filtering
Checking page: https://investors.johnsoncontrols.com/financial-information/quarterly-and-annual-reports
Found 16 reports for JOHNSON CONTROLS INTERNATIONAL PUBLIC LIMITED COMPANY:
  1. https://investors.johnsoncontrols.com/~/media/Files/J/Johnson-Controls-IR-V2/annual-meeting-materials/irish-statutory-reports-and-non-financial-report-for-fiscal-2024-v1.pdf (Year: 2024, Score: 10)
  2. https://investors.johnsoncontrols.com/~/media/Files/J/Johnson-Controls-IR-V2/annual-meeting-materials/jci-plc-2023-irish-annual-report.pdf (Year: 2023, Score: 10)
  3. https://investors.johnsoncontrols.com/~/media/Files/J/Johnson-Controls-IR-V2/annual-meeting-materials/irish-statutory-reports-for-fiscal-2022.pdf (Year: 2022, Score: 10)
  4. https://investors.johnsoncontrols.com/~/media/Files/J/Johnson-Controls-IR-V2/annual-meeting-materials/annual-reports/2024-annual-report-proxy-statement.pdf (Year: 2024, Score: 8)
  5. https://investors.johnsoncontrols.com/~/media/Files/J/Johnson-Controls-IR-V2/annual-meeting-materials/2024-proxy-statement.pdf (Year: 2024, Score: 8)
Results saved to results/financial_reports.csv
Completed processing JOHNSON CONTROLS INTERNATIONAL PUBLIC LIMITED COMPANY, found 6 reports
Results saved to results/financial_reports.csv
================================================================================
COMPLETED COMPANY: JOHNSON CONTROLS INTERNATIONAL PUBLIC LIMITED COMPANY
Current time: 2025-05-14 13:49:28
================================================================================
================================================================================
STARTING COMPANY: MAGNA INTERNATIONAL INC
Current time: 2025-05-14 13:49:28
================================================================================
Processing company 1/1: MAGNA INTERNATIONAL INC
Attempt 1/3 for MAGNA INTERNATIONAL INC

Processing: MAGNA INTERNATIONAL INC
Searching for: MAGNA INTERNATIONAL INC annual report pdf
Sending search request to DuckDuckGo for: MAGNA INTERNATIONAL INC annual report pdf
[SUCCESS] Search request successful. Processing results...
[FILTER] Skipping non-European domain: https://www.sec.gov/Archives/edgar/data/749098/000110465924040524/tm241263d3_ex99-1.pdf
[FILTER] Skipping non-European domain: https://www.sec.gov/Archives/edgar/data/749098/000110465923040139/tm234317d4_ex99-1.pdf
[SUCCESS] Found 8 results after filtering
Checking page: https://www.magna.com/company/investors/financial-reports-public-filings/annual-reports
Found 2 reports for MAGNA INTERNATIONAL INC:
  1. https://www.magna.com/docs/default-source/financial-reports-public-filings/annual-reports/2024-annual-report---magna---aoda.pdf?sfvrsn=188e000d_11 (Year: 2024, Score: 8)
  2. https://get.adobe.com/reader/ (Year: Unknown, Score: 2)
Results saved to results/financial_reports.csv
Completed processing MAGNA INTERNATIONAL INC, found 2 reports
Results saved to results/financial_reports.csv
================================================================================
COMPLETED COMPANY: MAGNA INTERNATIONAL INC
Current time: 2025-05-14 13:49:32
================================================================================
================================================================================
STARTING COMPANY: PUBLICIS GROUPE S A
Current time: 2025-05-14 13:49:32
================================================================================
Processing company 1/1: PUBLICIS GROUPE S A
Attempt 1/3 for PUBLICIS GROUPE S A

Processing: PUBLICIS GROUPE S A
Searching for: PUBLICIS GROUPE S A annual report pdf
Sending search request to DuckDuckGo for: PUBLICIS GROUPE S A annual report pdf
[ERROR] Search failed with status code: 403
Searching for: PUBLICIS GROUPE S A annual report pdf European Union
Sending search request to DuckDuckGo for: PUBLICIS GROUPE S A annual report pdf European Union
[ERROR] Search failed with status code: 403
Searching for: publicise s a european financial report
Sending search request to DuckDuckGo for: publicise s a european financial report
[ERROR] Search failed with status code: 403
Searching for: publicise s a europe investor relations annual report
Sending search request to DuckDuckGo for: publicise s a europe investor relations annual report
[ERROR] Search failed with status code: 403
Searching for: PUBLICIS GROUPE S A financial statements EU
Sending search request to DuckDuckGo for: PUBLICIS GROUPE S A financial statements EU
[ERROR] Search failed with status code: 403
Searching for: PUBLICIS GROUPE S A European Union annual report
Sending search request to DuckDuckGo for: PUBLICIS GROUPE S A European Union annual report
[ERROR] Search failed with status code: 403
Searching for: publicise s a EU headquarters financial report
Sending search request to DuckDuckGo for: publicise s a EU headquarters financial report
[ERROR] Search failed with status code: 403
Searching for: PUBLICIS GROUPE S A consolidated annual report Europe
Sending search request to DuckDuckGo for: PUBLICIS GROUPE S A consolidated annual report Europe
[ERROR] Search failed with status code: 403
Could not find investor relations pages for PUBLICIS GROUPE S A
No results found. Waiting 3.4 seconds before next attempt...
Attempt 2/3 for PUBLICIS GROUPE S A
Retry with more specific European search terms
Searching for: publicise s a europe annual financial report pdf
Sending search request to DuckDuckGo for: publicise s a europe annual financial report pdf
[ERROR] Search failed with status code: 403
No results found. Waiting 3.8 seconds before next attempt...
Attempt 3/3 for PUBLICIS GROUPE S A
Trying direct known patterns for PUBLICIS GROUPE S A
Trying known patterns for PUBLICIS GROUPE S A
No reports found for PUBLICIS GROUPE S A after 3 attempts
Results saved to results/financial_reports.csv
Completed processing PUBLICIS GROUPE S A, found 0 reports
Results saved to results/financial_reports.csv
================================================================================
COMPLETED COMPANY: PUBLICIS GROUPE S A
Current time: 2025-05-14 13:50:21
================================================================================
================================================================================
STARTING COMPANY: GEBR. KNAUF
Current time: 2025-05-14 13:50:21
================================================================================
Processing company 1/1: GEBR. KNAUF
Attempt 1/3 for GEBR. KNAUF

Processing: GEBR. KNAUF
Searching for: GEBR. KNAUF annual report pdf
Sending search request to DuckDuckGo for: GEBR. KNAUF annual report pdf
[ERROR] Search failed with status code: 403
Searching for: GEBR. KNAUF annual report pdf European Union
Sending search request to DuckDuckGo for: GEBR. KNAUF annual report pdf European Union
[ERROR] Search failed with status code: 403
Searching for: gebr knauf european financial report
Sending search request to DuckDuckGo for: gebr knauf european financial report
[ERROR] Search failed with status code: 403
Searching for: gebr knauf europe investor relations annual report
Sending search request to DuckDuckGo for: gebr knauf europe investor relations annual report
[ERROR] Search failed with status code: 403
Searching for: GEBR. KNAUF financial statements EU
Sending search request to DuckDuckGo for: GEBR. KNAUF financial statements EU
[ERROR] Search failed with status code: 403
Searching for: GEBR. KNAUF European Union annual report
Sending search request to DuckDuckGo for: GEBR. KNAUF European Union annual report
[ERROR] Search failed with status code: 403
Searching for: gebr knauf EU headquarters financial report
Sending search request to DuckDuckGo for: gebr knauf EU headquarters financial report
[ERROR] Search failed with status code: 403
Searching for: GEBR. KNAUF consolidated annual report Europe
Sending search request to DuckDuckGo for: GEBR. KNAUF consolidated annual report Europe
[ERROR] Search failed with status code: 403
Could not find investor relations pages for GEBR. KNAUF
No results found. Waiting 3.5 seconds before next attempt...
Attempt 2/3 for GEBR. KNAUF
Retry with more specific European search terms
Searching for: gebr knauf europe annual financial report pdf
Sending search request to DuckDuckGo for: gebr knauf europe annual financial report pdf
[ERROR] Search failed with status code: 403
No results found. Waiting 4.7 seconds before next attempt...
Attempt 3/3 for GEBR. KNAUF
Trying direct known patterns for GEBR. KNAUF
Trying known patterns for GEBR. KNAUF
No reports found for GEBR. KNAUF after 3 attempts
Results saved to results/financial_reports.csv
Completed processing GEBR. KNAUF, found 0 reports
Results saved to results/financial_reports.csv
================================================================================
COMPLETED COMPANY: GEBR. KNAUF
Current time: 2025-05-14 13:51:10
================================================================================
Results saved to results/batch_1.csv

Pausing for 3 minutes before next batch...
  3 minutes 0 seconds remaining...
  2 minutes 30 seconds remaining...
  2 minutes 0 seconds remaining...
  1 minutes 30 seconds remaining...
  1 minutes 0 seconds remaining...
  0 minutes 30 seconds remaining...

Processing batch 2 of 40
Companies in this batch: BRIDGESTONE CORPORATION, FERRERO, SUMITOMO CORPORATION, COMPAGNIE DE SAINT GOBAIN, ABBOTT LABORATORIES
================================================================================
STARTING COMPANY: BRIDGESTONE CORPORATION
Current time: 2025-05-14 13:54:10
================================================================================
Processing company 1/1: BRIDGESTONE CORPORATION
Attempt 1/3 for BRIDGESTONE CORPORATION

Processing: BRIDGESTONE CORPORATION
Searching for: BRIDGESTONE CORPORATION annual report pdf
Sending search request to DuckDuckGo for: BRIDGESTONE CORPORATION annual report pdf
[SUCCESS] Search request successful. Processing results...
[FILTER] Skipping non-European domain: https://www.bridgestone.com/corporate/library/annual_report/
[FILTER] Skipping non-European domain: https://www.bridgestone.com/ir/library/integrated_report/
[FILTER] Skipping non-European domain: https://www.bridgestone.com/ir/library/
[FILTER] Skipping non-European domain: https://www.bridgestoneamericas.com/content/dam/corpcomm/americas/press-assets/2023/bridgestone-releases-2023-integrated-report/070523bridgestone-releases-2023-integrated-report.pdf
[FILTER] Skipping non-European domain: https://www.bridgestoneamericas.com/content/dam/corpcomm/americas/pdfs/2022-DEI-Annual-Report-BSAM-English.pdf
[FILTER] Skipping non-European domain: https://press.bridgestone-emea.com/bridgestone-releases-its-bridgestone-30-journey-2024-integrated-report/
[SUCCESS] Found 4 results after filtering
Checking page: https://content.presspage.com/uploads/3167/e8c8cafd-9961-4c84-bf42-a5f8c851db4b/annualreport2024.pdf?10000
Sending HEAD request to: https://content.presspage.com/uploads/3167/e8c8cafd-9961-4c84-bf42-a5f8c851db4b/annualreport2024.pdf?10000/annual-report-2025.pdf
[SUCCESS] Found common pattern match: https://content.presspage.com/uploads/3167/e8c8cafd-9961-4c84-bf42-a5f8c851db4b/annualreport2024.pdf?10000/annual-report-2025.pdf
Sending HEAD request to: https://content.presspage.com/uploads/3167/e8c8cafd-9961-4c84-bf42-a5f8c851db4b/annualreport2024.pdf?10000/annual-report-2024.pdf
[SUCCESS] Found common pattern match: https://content.presspage.com/uploads/3167/e8c8cafd-9961-4c84-bf42-a5f8c851db4b/annualreport2024.pdf?10000/annual-report-2024.pdf
Sending HEAD request to: https://content.presspage.com/uploads/3167/e8c8cafd-9961-4c84-bf42-a5f8c851db4b/annualreport2024.pdf?10000/annual_report_2025.pdf
[SUCCESS] Found common pattern match: https://content.presspage.com/uploads/3167/e8c8cafd-9961-4c84-bf42-a5f8c851db4b/annualreport2024.pdf?10000/annual_report_2025.pdf
Sending HEAD request to: https://content.presspage.com/uploads/3167/e8c8cafd-9961-4c84-bf42-a5f8c851db4b/annualreport2024.pdf?10000/annual_report_2024.pdf
[SUCCESS] Found common pattern match: https://content.presspage.com/uploads/3167/e8c8cafd-9961-4c84-bf42-a5f8c851db4b/annualreport2024.pdf?10000/annual_report_2024.pdf
Sending HEAD request to: https://content.presspage.com/uploads/3167/e8c8cafd-9961-4c84-bf42-a5f8c851db4b/annualreport2024.pdf?10000/financial-report-2025.pdf
[SUCCESS] Found common pattern match: https://content.presspage.com/uploads/3167/e8c8cafd-9961-4c84-bf42-a5f8c851db4b/annualreport2024.pdf?10000/financial-report-2025.pdf
Sending HEAD request to: https://content.presspage.com/uploads/3167/e8c8cafd-9961-4c84-bf42-a5f8c851db4b/annualreport2024.pdf?10000/financial-report-2024.pdf
[SUCCESS] Found common pattern match: https://content.presspage.com/uploads/3167/e8c8cafd-9961-4c84-bf42-a5f8c851db4b/annualreport2024.pdf?10000/financial-report-2024.pdf
Checking page: https://sustainabilityreports.com/reports/bridgestone-corporation-2024-integrated-report-pdf/
Checking page: https://companiesmarketcap.com/bridgestone/annual-reports/
Found 21 reports for BRIDGESTONE CORPORATION:
  1. https://companiesmarketcap.com/annual-reports/11321.ar.en.2024.pdf (Year: 2024, Score: 8)
  2. https://companiesmarketcap.com/annual-reports/11321.ar.en.2023.pdf (Year: 2023, Score: 8)
  3. https://companiesmarketcap.com/annual-reports/11321.ar.en.2022.pdf (Year: 2022, Score: 8)
  4. https://sustainabilityreports.com/reports/bridgestone-corporation-2024-integrated-report-pdf/#unlock (Year: 2024, Score: 7)
  5. https://companiesmarketcap.com/annual-reports/11321.ar.en.2020.pdf (Year: 2020, Score: 6)
Results saved to results/financial_reports.csv
Completed processing BRIDGESTONE CORPORATION, found 6 reports
Results saved to results/financial_reports.csv
================================================================================
COMPLETED COMPANY: BRIDGESTONE CORPORATION
Current time: 2025-05-14 13:54:26
================================================================================
================================================================================
STARTING COMPANY: FERRERO
Current time: 2025-05-14 13:54:26
================================================================================
Processing company 1/1: FERRERO
Attempt 1/3 for FERRERO

Processing: FERRERO
Searching for: FERRERO annual report pdf
Sending search request to DuckDuckGo for: FERRERO annual report pdf
[SUCCESS] Search request successful. Processing results...
[SUCCESS] Found 10 results after filtering
Checking page: https://www.ferrero.com/int/en/news-stories/news/ferrero-group-reports-consolidated-financial-statements-2022-2023
Sending HEAD request to: https://www.ferrero.com/int/en/news-stories/news/ferrero-group-reports-consolidated-financial-statements-2022-2023/annual-report-2025.pdf
[STRATEGY] HEAD request failed with status 404, trying GET request...
Sending HEAD request to: https://www.ferrero.com/int/en/news-stories/news/ferrero-group-reports-consolidated-financial-statements-2022-2023/annual-report-2024.pdf
[STRATEGY] HEAD request failed with status 404, trying GET request...
Sending HEAD request to: https://www.ferrero.com/int/en/news-stories/news/ferrero-group-reports-consolidated-financial-statements-2022-2023/annual_report_2025.pdf
[STRATEGY] HEAD request failed with status 404, trying GET request...
Sending HEAD request to: https://www.ferrero.com/int/en/news-stories/news/ferrero-group-reports-consolidated-financial-statements-2022-2023/annual_report_2024.pdf
[STRATEGY] HEAD request failed with status 404, trying GET request...
Sending HEAD request to: https://www.ferrero.com/int/en/news-stories/news/ferrero-group-reports-consolidated-financial-statements-2022-2023/financial-report-2025.pdf
[STRATEGY] HEAD request failed with status 404, trying GET request...
Sending HEAD request to: https://www.ferrero.com/int/en/news-stories/news/ferrero-group-reports-consolidated-financial-statements-2022-2023/financial-report-2024.pdf
[STRATEGY] HEAD request failed with status 404, trying GET request...
Checking page: https://www.ferrero.com/cono/en/node/189
Sending HEAD request to: https://www.ferrero.com/cono/en/node/189/annual-report-2025.pdf
[STRATEGY] HEAD request failed with status 404, trying GET request...
Sending HEAD request to: https://www.ferrero.com/cono/en/node/189/annual-report-2024.pdf
[STRATEGY] HEAD request failed with status 404, trying GET request...
Sending HEAD request to: https://www.ferrero.com/cono/en/node/189/annual_report_2025.pdf
[STRATEGY] HEAD request failed with status 404, trying GET request...
Sending HEAD request to: https://www.ferrero.com/cono/en/node/189/annual_report_2024.pdf
[STRATEGY] HEAD request failed with status 404, trying GET request...
Sending HEAD request to: https://www.ferrero.com/cono/en/node/189/financial-report-2025.pdf
[STRATEGY] HEAD request failed with status 404, trying GET request...
Sending HEAD request to: https://www.ferrero.com/cono/en/node/189/financial-report-2024.pdf
[STRATEGY] HEAD request failed with status 404, trying GET request...
Checking page: https://irp-cdn.multiscreensite.com/f2e2aafa/files/uploaded/susuburom.pdf
Sending HEAD request to: https://irp-cdn.multiscreensite.com/f2e2aafa/files/uploaded/susuburom.pdf/annual-report-2025.pdf
[STRATEGY] HEAD request failed with status 403, trying GET request...
Sending HEAD request to: https://irp-cdn.multiscreensite.com/f2e2aafa/files/uploaded/susuburom.pdf/annual-report-2024.pdf
[STRATEGY] HEAD request failed with status 403, trying GET request...
Sending HEAD request to: https://irp-cdn.multiscreensite.com/f2e2aafa/files/uploaded/susuburom.pdf/annual_report_2025.pdf
[STRATEGY] HEAD request failed with status 403, trying GET request...
Sending HEAD request to: https://irp-cdn.multiscreensite.com/f2e2aafa/files/uploaded/susuburom.pdf/annual_report_2024.pdf
[STRATEGY] HEAD request failed with status 403, trying GET request...
Sending HEAD request to: https://irp-cdn.multiscreensite.com/f2e2aafa/files/uploaded/susuburom.pdf/financial-report-2025.pdf
[STRATEGY] HEAD request failed with status 403, trying GET request...
Sending HEAD request to: https://irp-cdn.multiscreensite.com/f2e2aafa/files/uploaded/susuburom.pdf/financial-report-2024.pdf
[STRATEGY] HEAD request failed with status 403, trying GET request...
No results found. Waiting 3.6 seconds before next attempt...
Attempt 2/3 for FERRERO
Retry with more specific European search terms
Searching for: ferrero europe annual financial report pdf
Sending search request to DuckDuckGo for: ferrero europe annual financial report pdf
[SUCCESS] Search request successful. Processing results...
[FILTER] Skipping non-European domain: https://www.yna.co.kr/view/RPR20250213016100353
[SUCCESS] Found 9 results after filtering
Checking page: https://www.ferrero.com/int/en/news-stories/news/ferrero-group-reports-consolidated-financial-statements-2022-2023
Sending HEAD request to: https://www.ferrero.com/int/en/news-stories/news/ferrero-group-reports-consolidated-financial-statements-2022-2023/annual-report-2025.pdf
[STRATEGY] HEAD request failed with status 404, trying GET request...
Sending HEAD request to: https://www.ferrero.com/int/en/news-stories/news/ferrero-group-reports-consolidated-financial-statements-2022-2023/annual-report-2024.pdf
[STRATEGY] HEAD request failed with status 404, trying GET request...
Sending HEAD request to: https://www.ferrero.com/int/en/news-stories/news/ferrero-group-reports-consolidated-financial-statements-2022-2023/annual_report_2025.pdf
[STRATEGY] HEAD request failed with status 404, trying GET request...
Sending HEAD request to: https://www.ferrero.com/int/en/news-stories/news/ferrero-group-reports-consolidated-financial-statements-2022-2023/annual_report_2024.pdf
[STRATEGY] HEAD request failed with status 404, trying GET request...
Sending HEAD request to: https://www.ferrero.com/int/en/news-stories/news/ferrero-group-reports-consolidated-financial-statements-2022-2023/financial-report-2025.pdf
[STRATEGY] HEAD request failed with status 404, trying GET request...
Sending HEAD request to: https://www.ferrero.com/int/en/news-stories/news/ferrero-group-reports-consolidated-financial-statements-2022-2023/financial-report-2024.pdf
[STRATEGY] HEAD request failed with status 404, trying GET request...
Checking page: https://www.ferrero.com/cono/en/node/189
Sending HEAD request to: https://www.ferrero.com/cono/en/node/189/annual-report-2025.pdf
[STRATEGY] HEAD request failed with status 404, trying GET request...
Sending HEAD request to: https://www.ferrero.com/cono/en/node/189/annual-report-2024.pdf
[STRATEGY] HEAD request failed with status 404, trying GET request...
Sending HEAD request to: https://www.ferrero.com/cono/en/node/189/annual_report_2025.pdf
[STRATEGY] HEAD request failed with status 404, trying GET request...
Sending HEAD request to: https://www.ferrero.com/cono/en/node/189/annual_report_2024.pdf
[STRATEGY] HEAD request failed with status 404, trying GET request...
Sending HEAD request to: https://www.ferrero.com/cono/en/node/189/financial-report-2025.pdf
[STRATEGY] HEAD request failed with status 404, trying GET request...
Sending HEAD request to: https://www.ferrero.com/cono/en/node/189/financial-report-2024.pdf
[STRATEGY] HEAD request failed with status 404, trying GET request...
Checking page: https://www.ferrero.com/int/en/news-stories/news/ferrero-group-reports-consolidated-financial-statements-for-the-2023-2024-financial-year
Sending HEAD request to: https://www.ferrero.com/int/en/news-stories/news/ferrero-group-reports-consolidated-financial-statements-for-the-2023-2024-financial-year/annual-report-2025.pdf
[STRATEGY] HEAD request failed with status 404, trying GET request...
Sending HEAD request to: https://www.ferrero.com/int/en/news-stories/news/ferrero-group-reports-consolidated-financial-statements-for-the-2023-2024-financial-year/annual-report-2024.pdf
[STRATEGY] HEAD request failed with status 404, trying GET request...
Sending HEAD request to: https://www.ferrero.com/int/en/news-stories/news/ferrero-group-reports-consolidated-financial-statements-for-the-2023-2024-financial-year/annual_report_2025.pdf
[STRATEGY] HEAD request failed with status 404, trying GET request...
Sending HEAD request to: https://www.ferrero.com/int/en/news-stories/news/ferrero-group-reports-consolidated-financial-statements-for-the-2023-2024-financial-year/annual_report_2024.pdf
[STRATEGY] HEAD request failed with status 404, trying GET request...
Sending HEAD request to: https://www.ferrero.com/int/en/news-stories/news/ferrero-group-reports-consolidated-financial-statements-for-the-2023-2024-financial-year/financial-report-2025.pdf
[STRATEGY] HEAD request failed with status 404, trying GET request...
Sending HEAD request to: https://www.ferrero.com/int/en/news-stories/news/ferrero-group-reports-consolidated-financial-statements-for-the-2023-2024-financial-year/financial-report-2024.pdf
[STRATEGY] HEAD request failed with status 404, trying GET request...
No results found. Waiting 3.0 seconds before next attempt...
Attempt 3/3 for FERRERO
Trying direct known patterns for FERRERO
Trying known patterns for FERRERO
No reports found for FERRERO after 3 attempts
Results saved to results/financial_reports.csv
Completed processing FERRERO, found 0 reports
Results saved to results/financial_reports.csv
================================================================================
COMPLETED COMPANY: FERRERO
Current time: 2025-05-14 13:55:29
================================================================================
================================================================================
STARTING COMPANY: SUMITOMO CORPORATION
Current time: 2025-05-14 13:55:29
================================================================================
Processing company 1/1: SUMITOMO CORPORATION
Attempt 1/3 for SUMITOMO CORPORATION

Processing: SUMITOMO CORPORATION
Searching for: SUMITOMO CORPORATION annual report pdf
Sending search request to DuckDuckGo for: SUMITOMO CORPORATION annual report pdf
[SUCCESS] Search request successful. Processing results...
[FILTER] Skipping non-European domain: https://www.smfg.co.jp/english/gr2024/
[FILTER] Skipping non-European domain: https://www.smfg.co.jp/english/investor/financial/annual.html
[FILTER] Skipping non-European domain: https://www.smfg.co.jp/english/gr2023/pdf/2308_ird_e00.pdf
[FILTER] Skipping non-European domain: https://www.sumitomo-chem.co.jp/english/ir/library/annual_report/
[SUCCESS] Found 6 results after filtering
Checking page: https://www.sumitomocorp.com/en/jp/ir/financial/investors-guide/
Sending HEAD request to: https://www.sumitomocorp.com/en/jp/ir/financial/investors-guide/annual-report-2025.pdf
[STRATEGY] HEAD request failed with status 404, trying GET request...
Sending HEAD request to: https://www.sumitomocorp.com/en/jp/ir/financial/investors-guide/annual-report-2024.pdf
[STRATEGY] HEAD request failed with status 404, trying GET request...
Sending HEAD request to: https://www.sumitomocorp.com/en/jp/ir/financial/investors-guide/annual_report_2025.pdf
[STRATEGY] HEAD request failed with status 404, trying GET request...
Sending HEAD request to: https://www.sumitomocorp.com/en/jp/ir/financial/investors-guide/annual_report_2024.pdf
[STRATEGY] HEAD request failed with status 404, trying GET request...
Sending HEAD request to: https://www.sumitomocorp.com/en/jp/ir/financial/investors-guide/financial-report-2025.pdf
[STRATEGY] HEAD request failed with status 404, trying GET request...
Sending HEAD request to: https://www.sumitomocorp.com/en/jp/ir/financial/investors-guide/financial-report-2024.pdf
[STRATEGY] HEAD request failed with status 404, trying GET request...
Checking page: https://sumitomogroups.com/ir/report.html
Sending HEAD request to: https://sumitomogroups.com/ir/report.html/annual-report-2025.pdf
[STRATEGY] HEAD request failed with status 404, trying GET request...
Sending HEAD request to: https://sumitomogroups.com/ir/report.html/annual-report-2024.pdf
[STRATEGY] HEAD request failed with status 404, trying GET request...
Sending HEAD request to: https://sumitomogroups.com/ir/report.html/annual_report_2025.pdf
[STRATEGY] HEAD request failed with status 404, trying GET request...
Sending HEAD request to: https://sumitomogroups.com/ir/report.html/annual_report_2024.pdf
[STRATEGY] HEAD request failed with status 404, trying GET request...
Sending HEAD request to: https://sumitomogroups.com/ir/report.html/financial-report-2025.pdf
[STRATEGY] HEAD request failed with status 404, trying GET request...
Sending HEAD request to: https://sumitomogroups.com/ir/report.html/financial-report-2024.pdf
[STRATEGY] HEAD request failed with status 404, trying GET request...
Checking page: https://sumitomogroups.com/ir/index.html
Sending HEAD request to: https://sumitomogroups.com/ir/index.html/annual-report-2025.pdf
[STRATEGY] HEAD request failed with status 404, trying GET request...
Sending HEAD request to: https://sumitomogroups.com/ir/index.html/annual-report-2024.pdf
[STRATEGY] HEAD request failed with status 404, trying GET request...
Sending HEAD request to: https://sumitomogroups.com/ir/index.html/annual_report_2025.pdf
[STRATEGY] HEAD request failed with status 404, trying GET request...
Sending HEAD request to: https://sumitomogroups.com/ir/index.html/annual_report_2024.pdf
[STRATEGY] HEAD request failed with status 404, trying GET request...
Sending HEAD request to: https://sumitomogroups.com/ir/index.html/financial-report-2025.pdf
[STRATEGY] HEAD request failed with status 404, trying GET request...
Sending HEAD request to: https://sumitomogroups.com/ir/index.html/financial-report-2024.pdf
[STRATEGY] HEAD request failed with status 404, trying GET request...
No results found. Waiting 3.7 seconds before next attempt...
Attempt 2/3 for SUMITOMO CORPORATION
Retry with more specific European search terms
Searching for: sumitomo corporation europe annual financial report pdf
Sending search request to DuckDuckGo for: sumitomo corporation europe annual financial report pdf
[SUCCESS] Search request successful. Processing results...
[FILTER] Skipping non-European domain: https://www.smfg.co.jp/english/investor/financial/annual.html
[FILTER] Skipping non-European domain: https://www.sumitomo-soko.co.jp/English/ir/pdf/integrated-report/ir2024.pdf
[FILTER] Skipping non-European domain: https://www.sumitomo-chem.co.jp/english/ir/library/annual_report/
[FILTER] Skipping non-European domain: https://www.smfg.co.jp/english/gr2024/
[SUCCESS] Found 6 results after filtering
Checking page: https://www.sumitomocorp.com/en/europe/sitecore/content/HQ/Home/ir/report
Sending HEAD request to: https://www.sumitomocorp.com/en/europe/sitecore/content/HQ/Home/ir/report/annual-report-2025.pdf
[STRATEGY] HEAD request failed with status 404, trying GET request...
Sending HEAD request to: https://www.sumitomocorp.com/en/europe/sitecore/content/HQ/Home/ir/report/annual-report-2024.pdf
[STRATEGY] HEAD request failed with status 404, trying GET request...
Sending HEAD request to: https://www.sumitomocorp.com/en/europe/sitecore/content/HQ/Home/ir/report/annual_report_2025.pdf
[STRATEGY] HEAD request failed with status 404, trying GET request...
Sending HEAD request to: https://www.sumitomocorp.com/en/europe/sitecore/content/HQ/Home/ir/report/annual_report_2024.pdf
[STRATEGY] HEAD request failed with status 404, trying GET request...
Sending HEAD request to: https://www.sumitomocorp.com/en/europe/sitecore/content/HQ/Home/ir/report/financial-report-2025.pdf
[STRATEGY] HEAD request failed with status 404, trying GET request...
Sending HEAD request to: https://www.sumitomocorp.com/en/europe/sitecore/content/HQ/Home/ir/report/financial-report-2024.pdf
[STRATEGY] HEAD request failed with status 404, trying GET request...
Checking page: https://www.sumitomocorp.com/en/europe/sitecore/content/HQ/Home/ir/financial/investors-guide/2022
Found 1 reports for SUMITOMO CORPORATION:
  1. https://www.sumitomocorp.com/en/europe/sitecore/content/HQ/Home/ir/financial/investors-guide/2022#LNav02 (Year: 2022, Score: 7)
Results saved to results/financial_reports.csv
Completed processing SUMITOMO CORPORATION, found 1 reports
Results saved to results/financial_reports.csv
================================================================================
COMPLETED COMPANY: SUMITOMO CORPORATION
Current time: 2025-05-14 13:56:28
================================================================================
================================================================================
STARTING COMPANY: COMPAGNIE DE SAINT GOBAIN
Current time: 2025-05-14 13:56:28
================================================================================
Processing company 1/1: COMPAGNIE DE SAINT GOBAIN
Attempt 1/3 for COMPAGNIE DE SAINT GOBAIN

Processing: COMPAGNIE DE SAINT GOBAIN
Searching for: COMPAGNIE DE SAINT GOBAIN annual report pdf
Sending search request to DuckDuckGo for: COMPAGNIE DE SAINT GOBAIN annual report pdf
[SUCCESS] Search request successful. Processing results...
[SUCCESS] Found 10 results after filtering
Checking page: https://www.saint-gobain.com/sites/saint-gobain.com/files/media/document/Saint-Gobain-2022-2023-RAI-EN-01_0.pdf
Sending HEAD request to: https://www.saint-gobain.com/sites/saint-gobain.com/files/media/document/Saint-Gobain-2022-2023-RAI-EN-01_0.pdf/annual-report-2025.pdf
[STRATEGY] HEAD request failed with status 404, trying GET request...
Sending HEAD request to: https://www.saint-gobain.com/sites/saint-gobain.com/files/media/document/Saint-Gobain-2022-2023-RAI-EN-01_0.pdf/annual-report-2024.pdf
[STRATEGY] HEAD request failed with status 404, trying GET request...
Sending HEAD request to: https://www.saint-gobain.com/sites/saint-gobain.com/files/media/document/Saint-Gobain-2022-2023-RAI-EN-01_0.pdf/annual_report_2025.pdf
[STRATEGY] HEAD request failed with status 404, trying GET request...
Sending HEAD request to: https://www.saint-gobain.com/sites/saint-gobain.com/files/media/document/Saint-Gobain-2022-2023-RAI-EN-01_0.pdf/annual_report_2024.pdf
[STRATEGY] HEAD request failed with status 404, trying GET request...
Sending HEAD request to: https://www.saint-gobain.com/sites/saint-gobain.com/files/media/document/Saint-Gobain-2022-2023-RAI-EN-01_0.pdf/financial-report-2025.pdf
[STRATEGY] HEAD request failed with status 404, trying GET request...
Sending HEAD request to: https://www.saint-gobain.com/sites/saint-gobain.com/files/media/document/Saint-Gobain-2022-2023-RAI-EN-01_0.pdf/financial-report-2024.pdf
[STRATEGY] HEAD request failed with status 404, trying GET request...
Checking page: https://www.saint-gobain.com/en/finance/financial-results
Failed to load page: 403
Checking page: https://www.annualreports.com/Company/saint-gobain
Found 15 reports for COMPAGNIE DE SAINT GOBAIN:
  1. https://www.annualreports.com/HostedData/AnnualReportArchive/s/saint-gobain_2022.pdf (Year: 2022, Score: 8)
  2. https://www.annualreports.com/HostedData/AnnualReportArchive/s/saint-gobain_2021.pdf (Year: 2021, Score: 6)
  3. https://www.annualreports.com/HostedData/AnnualReportArchive/s/saint-gobain_2020.pdf (Year: 2020, Score: 6)
  4. https://www.annualreports.com/HostedData/AnnualReportArchive/s/saint-gobain_2011.pdf (Year: 2011, Score: 3)
  5. https://www.annualreports.com/HostedData/AnnualReportArchive/s/saint-gobain_2010.pdf (Year: 2010, Score: 3)
Results saved to results/financial_reports.csv
Completed processing COMPAGNIE DE SAINT GOBAIN, found 6 reports
Results saved to results/financial_reports.csv
================================================================================
COMPLETED COMPANY: COMPAGNIE DE SAINT GOBAIN
Current time: 2025-05-14 13:56:40
================================================================================
================================================================================
STARTING COMPANY: ABBOTT LABORATORIES
Current time: 2025-05-14 13:56:40
================================================================================
Processing company 1/1: ABBOTT LABORATORIES
Attempt 1/3 for ABBOTT LABORATORIES

Processing: ABBOTT LABORATORIES
Searching for: ABBOTT LABORATORIES annual report pdf
Sending search request to DuckDuckGo for: ABBOTT LABORATORIES annual report pdf
[SUCCESS] Search request successful. Processing results...
[FILTER] Skipping non-European domain: https://www.sec.gov/Archives/edgar/data/1800/000130817924000184/abt_2023annualreport.pdf
[SUCCESS] Found 9 results after filtering
Checking page: https://www.abbottinvestor.com/financials/annual-reports/
Error processing page https://www.abbottinvestor.com/financials/annual-reports/: HTTPSConnectionPool(host='www.abbottinvestor.com', port=443): Read timed out. (read timeout=30)
Checking page: https://www.abbottinvestor.com/static-files/6cb09c09-2422-40e0-a24b-6545ffcf5267
Error processing page https://www.abbottinvestor.com/static-files/6cb09c09-2422-40e0-a24b-6545ffcf5267: HTTPSConnectionPool(host='www.abbottinvestor.com', port=443): Read timed out. (read timeout=30)
Checking page: https://www.annualreports.com/Company/abbott-laboratories
Found 15 reports for ABBOTT LABORATORIES:
  1. https://www.annualreports.com/HostedData/AnnualReportArchive/a/NYSE_ABT_2023.pdf (Year: 2023, Score: 8)
  2. https://www.annualreports.com/HostedData/AnnualReportArchive/a/NYSE_ABT_2022.pdf (Year: 2022, Score: 8)
  3. https://www.annualreports.com/HostedData/AnnualReportArchive/a/NYSE_ABT_2021.pdf (Year: 2021, Score: 6)
  4. https://www.annualreports.com/HostedData/AnnualReportArchive/a/NYSE_ABT_2020.pdf (Year: 2020, Score: 6)
  5. https://www.annualreports.com/HostedData/AnnualReportArchive/a/NYSE_ABT_2019.pdf (Year: 2019, Score: 3)
Results saved to results/financial_reports.csv
Completed processing ABBOTT LABORATORIES, found 6 reports
Results saved to results/financial_reports.csv
================================================================================
COMPLETED COMPANY: ABBOTT LABORATORIES
Current time: 2025-05-14 13:57:51
================================================================================
Results saved to results/batch_2.csv

Pausing for 3 minutes before next batch...
  3 minutes 0 seconds remaining...
  2 minutes 30 seconds remaining...
  2 minutes 0 seconds remaining...
  1 minutes 30 seconds remaining...
  1 minutes 0 seconds remaining...
  0 minutes 30 seconds remaining...

Processing batch 3 of 40
Companies in this batch: BP P.L.C., ENGIE, DENTSU GROUP INC., THYSSENKRUPP, VOESTALPINE GROUP
================================================================================
STARTING COMPANY: BP P.L.C.
Current time: 2025-05-14 14:00:51
================================================================================
Processing company 1/1: BP P.L.C.
Attempt 1/3 for BP P.L.C.

Processing: BP P.L.C.
Searching for: BP P.L.C. annual report pdf
Sending search request to DuckDuckGo for: BP P.L.C. annual report pdf
[SUCCESS] Search request successful. Processing results...
[SUCCESS] Found 10 results after filtering
Checking page: https://www.bp.com/en/global/corporate/investors/results-reporting-and-presentations/annual-report.html
Found 2 reports for BP P.L.C.:
  1. https://www.bp.com/content/dam/bp/business-sites/en/global/corporate/pdfs/investors/bp-annual-report-and-form-20f-financial-statements-2024.pdf (Year: 2024, Score: 10)
  2. https://www.bp.com/content/dam/bp/business-sites/en/global/corporate/pdfs/investors/bp-annual-report-and-form-20f-2024.pdf (Year: 2024, Score: 8)
Results saved to results/financial_reports.csv
Completed processing BP P.L.C., found 2 reports
Results saved to results/financial_reports.csv
================================================================================
COMPLETED COMPANY: BP P.L.C.
Current time: 2025-05-14 14:00:54
================================================================================
================================================================================
STARTING COMPANY: ENGIE
Current time: 2025-05-14 14:00:54
================================================================================
Processing company 1/1: ENGIE
Attempt 1/3 for ENGIE

Processing: ENGIE
Searching for: ENGIE annual report pdf
Sending search request to DuckDuckGo for: ENGIE annual report pdf
[SUCCESS] Search request successful. Processing results...
[SUCCESS] Found 10 results after filtering
Checking page: https://www.engie.com/sites/default/files/assets/documents/2025-03/2024%20Management%20report%20and%20Annual%20consolidated%20financial%20statements.pdf
Sending HEAD request to: https://www.engie.com/sites/default/files/assets/documents/2025-03/2024%20Management%20report%20and%20Annual%20consolidated%20financial%20statements.pdf/annual-report-2025.pdf
[STRATEGY] HEAD request failed with status 403, trying GET request...
Sending HEAD request to: https://www.engie.com/sites/default/files/assets/documents/2025-03/2024%20Management%20report%20and%20Annual%20consolidated%20financial%20statements.pdf/annual-report-2024.pdf
[STRATEGY] HEAD request failed with status 403, trying GET request...
Sending HEAD request to: https://www.engie.com/sites/default/files/assets/documents/2025-03/2024%20Management%20report%20and%20Annual%20consolidated%20financial%20statements.pdf/annual_report_2025.pdf
[STRATEGY] HEAD request failed with status 403, trying GET request...
Sending HEAD request to: https://www.engie.com/sites/default/files/assets/documents/2025-03/2024%20Management%20report%20and%20Annual%20consolidated%20financial%20statements.pdf/annual_report_2024.pdf
[STRATEGY] HEAD request failed with status 403, trying GET request...
Sending HEAD request to: https://www.engie.com/sites/default/files/assets/documents/2025-03/2024%20Management%20report%20and%20Annual%20consolidated%20financial%20statements.pdf/financial-report-2025.pdf
[STRATEGY] HEAD request failed with status 403, trying GET request...
Sending HEAD request to: https://www.engie.com/sites/default/files/assets/documents/2025-03/2024%20Management%20report%20and%20Annual%20consolidated%20financial%20statements.pdf/financial-report-2024.pdf
[STRATEGY] HEAD request failed with status 403, trying GET request...
Checking page: https://www.annualreports.com/Company/engie
Found 8 reports for ENGIE:
  1. https://www.annualreports.com/HostedData/AnnualReportArchive/e/engie_2023.pdf (Year: 2023, Score: 8)
  2. https://www.annualreports.com/HostedData/AnnualReportArchive/e/engie_2022.pdf (Year: 2022, Score: 8)
  3. https://www.annualreports.com/HostedData/AnnualReportArchive/e/engie_2021.pdf (Year: 2021, Score: 6)
  4. https://www.annualreports.com/HostedData/AnnualReportArchive/e/engie_2020.pdf (Year: 2020, Score: 6)
  5. https://www.annualreports.com/HostedData/AnnualReportArchive/e/engie_2019.pdf (Year: 2019, Score: 3)
Results saved to results/financial_reports.csv
Completed processing ENGIE, found 6 reports
Results saved to results/financial_reports.csv
================================================================================
COMPLETED COMPANY: ENGIE
Current time: 2025-05-14 14:01:05
================================================================================
================================================================================
STARTING COMPANY: DENTSU GROUP INC.
Current time: 2025-05-14 14:01:05
================================================================================
Processing company 1/1: DENTSU GROUP INC.
Attempt 1/3 for DENTSU GROUP INC.

Processing: DENTSU GROUP INC.
Searching for: DENTSU GROUP INC. annual report pdf
Sending search request to DuckDuckGo for: DENTSU GROUP INC. annual report pdf
[SUCCESS] Search request successful. Processing results...
[SUCCESS] Found 10 results after filtering
Checking page: https://www.group.dentsu.com/en/ir/library/annual.html
Sending HEAD request to: https://www.group.dentsu.com/en/ir/library/annual.html/annual-report-2025.pdf
[STRATEGY] HEAD request failed with status 404, trying GET request...
Sending HEAD request to: https://www.group.dentsu.com/en/ir/library/annual.html/annual-report-2024.pdf
[STRATEGY] HEAD request failed with status 404, trying GET request...
Sending HEAD request to: https://www.group.dentsu.com/en/ir/library/annual.html/annual_report_2025.pdf
[STRATEGY] HEAD request failed with status 404, trying GET request...
Sending HEAD request to: https://www.group.dentsu.com/en/ir/library/annual.html/annual_report_2024.pdf
[STRATEGY] HEAD request failed with status 404, trying GET request...
Sending HEAD request to: https://www.group.dentsu.com/en/ir/library/annual.html/financial-report-2025.pdf
[STRATEGY] HEAD request failed with status 404, trying GET request...
Sending HEAD request to: https://www.group.dentsu.com/en/ir/library/annual.html/financial-report-2024.pdf
[STRATEGY] HEAD request failed with status 404, trying GET request...
Checking page: https://www.group.dentsu.com/en/sustainability/reports/
Checking page: https://www.dentsu.com/us/en/financial-reports
Sending HEAD request to: https://www.dentsu.com/us/en/financial-reports/annual-report-2025.pdf
[STRATEGY] HEAD request failed with status 404, trying GET request...
Sending HEAD request to: https://www.dentsu.com/us/en/financial-reports/annual-report-2024.pdf
[STRATEGY] HEAD request failed with status 404, trying GET request...
Sending HEAD request to: https://www.dentsu.com/us/en/financial-reports/annual_report_2025.pdf
[STRATEGY] HEAD request failed with status 404, trying GET request...
Sending HEAD request to: https://www.dentsu.com/us/en/financial-reports/annual_report_2024.pdf
[STRATEGY] HEAD request failed with status 404, trying GET request...
Sending HEAD request to: https://www.dentsu.com/us/en/financial-reports/financial-report-2025.pdf
[STRATEGY] HEAD request failed with status 404, trying GET request...
Sending HEAD request to: https://www.dentsu.com/us/en/financial-reports/financial-report-2024.pdf
[STRATEGY] HEAD request failed with status 404, trying GET request...
Found 1 reports for DENTSU GROUP INC.:
  1. https://www.group.dentsu.com/en/sustainability/common/pdf/integrated-report2018_49.pdf (Year: 2018, Score: 2)
Results saved to results/financial_reports.csv
Completed processing DENTSU GROUP INC., found 1 reports
Results saved to results/financial_reports.csv
================================================================================
COMPLETED COMPANY: DENTSU GROUP INC.
Current time: 2025-05-14 14:01:38
================================================================================
================================================================================
STARTING COMPANY: THYSSENKRUPP
Current time: 2025-05-14 14:01:38
================================================================================
Processing company 1/1: THYSSENKRUPP
Attempt 1/3 for THYSSENKRUPP

Processing: THYSSENKRUPP
Searching for: THYSSENKRUPP annual report pdf
Sending search request to DuckDuckGo for: THYSSENKRUPP annual report pdf
[SUCCESS] Search request successful. Processing results...
[SUCCESS] Found 10 results after filtering
Checking page: https://www.thyssenkrupp.com/en/investors/reporting-and-publications
Found 1 reports for THYSSENKRUPP:
  1. https://www.thyssenkrupp.com/_binary/UCPthyssenkruppAG/0beedfca-2fd9-449f-bc7d-7c04374d73de/thyssenkrupp-GB_2023-2024_EN_WEB.pdf (Year: 2023, Score: 8)
Results saved to results/financial_reports.csv
Completed processing THYSSENKRUPP, found 1 reports
Results saved to results/financial_reports.csv
================================================================================
COMPLETED COMPANY: THYSSENKRUPP
Current time: 2025-05-14 14:01:40
================================================================================
================================================================================
STARTING COMPANY: VOESTALPINE GROUP
Current time: 2025-05-14 14:01:40
================================================================================
Processing company 1/1: VOESTALPINE GROUP
Attempt 1/3 for VOESTALPINE GROUP

Processing: VOESTALPINE GROUP
Searching for: VOESTALPINE GROUP annual report pdf
Sending search request to DuckDuckGo for: VOESTALPINE GROUP annual report pdf
[SUCCESS] Search request successful. Processing results...
[SUCCESS] Found 10 results after filtering
Checking page: https://www.voestalpine.com/group/static/sites/group/.downloads/en/publications-2023-24/2023-24-annual-report.pdf
Sending HEAD request to: https://www.voestalpine.com/group/static/sites/group/.downloads/en/publications-2023-24/2023-24-annual-report.pdf/annual-report-2025.pdf
[STRATEGY] HEAD request failed with status 404, trying GET request...
Sending HEAD request to: https://www.voestalpine.com/group/static/sites/group/.downloads/en/publications-2023-24/2023-24-annual-report.pdf/annual-report-2024.pdf
[STRATEGY] HEAD request failed with status 404, trying GET request...
Sending HEAD request to: https://www.voestalpine.com/group/static/sites/group/.downloads/en/publications-2023-24/2023-24-annual-report.pdf/annual_report_2025.pdf
[STRATEGY] HEAD request failed with status 404, trying GET request...
Sending HEAD request to: https://www.voestalpine.com/group/static/sites/group/.downloads/en/publications-2023-24/2023-24-annual-report.pdf/annual_report_2024.pdf
[STRATEGY] HEAD request failed with status 404, trying GET request...
Sending HEAD request to: https://www.voestalpine.com/group/static/sites/group/.downloads/en/publications-2023-24/2023-24-annual-report.pdf/financial-report-2025.pdf
[STRATEGY] HEAD request failed with status 404, trying GET request...
Sending HEAD request to: https://www.voestalpine.com/group/static/sites/group/.downloads/en/publications-2023-24/2023-24-annual-report.pdf/financial-report-2024.pdf
[STRATEGY] HEAD request failed with status 404, trying GET request...
Checking page: https://reports.voestalpine.com/2223/ar/services/downloads.html
Found 1 reports for VOESTALPINE GROUP:
  1. https://reports.voestalpine.com/2223/ar/_assets/downloads/entire-va-ar2223.pdf (Year: 2022, Score: 8)
Results saved to results/financial_reports.csv
Completed processing VOESTALPINE GROUP, found 1 reports
Results saved to results/financial_reports.csv
================================================================================
COMPLETED COMPANY: VOESTALPINE GROUP
Current time: 2025-05-14 14:01:48
================================================================================
Results saved to results/batch_3.csv

Pausing for 3 minutes before next batch...
  3 minutes 0 seconds remaining...
  2 minutes 30 seconds remaining...
  2 minutes 0 seconds remaining...
  1 minutes 30 seconds remaining...
  1 minutes 0 seconds remaining...
  0 minutes 30 seconds remaining...

Processing batch 4 of 40
Companies in this batch: ORANGE, ORACLE CORP, ACCOR, PROCTER & GAMBLE CO, FCC
================================================================================
STARTING COMPANY: ORANGE
Current time: 2025-05-14 14:04:48
================================================================================
Processing company 1/1: ORANGE
Attempt 1/3 for ORANGE

Processing: ORANGE
Searching for: ORANGE annual report pdf
Sending search request to DuckDuckGo for: ORANGE annual report pdf
[SUCCESS] Search request successful. Processing results...
[SUCCESS] Found 10 results after filtering
Checking page: https://www.orange.com/en/our-integrated-annual-report
Sending HEAD request to: https://www.orange.com/en/our-integrated-annual-report/annual-report-2025.pdf
[STRATEGY] HEAD request failed with status 404, trying GET request...
Sending HEAD request to: https://www.orange.com/en/our-integrated-annual-report/annual-report-2024.pdf
[STRATEGY] HEAD request failed with status 404, trying GET request...
Sending HEAD request to: https://www.orange.com/en/our-integrated-annual-report/annual_report_2025.pdf
[STRATEGY] HEAD request failed with status 404, trying GET request...
Sending HEAD request to: https://www.orange.com/en/our-integrated-annual-report/annual_report_2024.pdf
[STRATEGY] HEAD request failed with status 404, trying GET request...
Sending HEAD request to: https://www.orange.com/en/our-integrated-annual-report/financial-report-2025.pdf
[STRATEGY] HEAD request failed with status 404, trying GET request...
Sending HEAD request to: https://www.orange.com/en/our-integrated-annual-report/financial-report-2024.pdf
[STRATEGY] HEAD request failed with status 404, trying GET request...
Checking page: https://www.orange.com/en/finance/investors/consolidated-results
Sending HEAD request to: https://www.orange.com/en/finance/investors/consolidated-results/annual-report-2025.pdf
[STRATEGY] HEAD request failed with status 404, trying GET request...
Sending HEAD request to: https://www.orange.com/en/finance/investors/consolidated-results/annual-report-2024.pdf
[STRATEGY] HEAD request failed with status 404, trying GET request...
Sending HEAD request to: https://www.orange.com/en/finance/investors/consolidated-results/annual_report_2025.pdf
[STRATEGY] HEAD request failed with status 404, trying GET request...
Sending HEAD request to: https://www.orange.com/en/finance/investors/consolidated-results/annual_report_2024.pdf
[STRATEGY] HEAD request failed with status 404, trying GET request...
Sending HEAD request to: https://www.orange.com/en/finance/investors/consolidated-results/financial-report-2025.pdf
[STRATEGY] HEAD request failed with status 404, trying GET request...
Sending HEAD request to: https://www.orange.com/en/finance/investors/consolidated-results/financial-report-2024.pdf
[STRATEGY] HEAD request failed with status 404, trying GET request...
Checking page: https://rai.orange.com/wp-content/uploads/sites/54/2024/02/orange_integratedannualreport_2022_en.pdf
Sending HEAD request to: https://rai.orange.com/wp-content/uploads/sites/54/2024/02/orange_integratedannualreport_2022_en.pdf/annual-report-2025.pdf
[STRATEGY] HEAD request failed with status 404, trying GET request...
Sending HEAD request to: https://rai.orange.com/wp-content/uploads/sites/54/2024/02/orange_integratedannualreport_2022_en.pdf/annual-report-2024.pdf
[STRATEGY] HEAD request failed with status 404, trying GET request...
Sending HEAD request to: https://rai.orange.com/wp-content/uploads/sites/54/2024/02/orange_integratedannualreport_2022_en.pdf/annual_report_2025.pdf
[STRATEGY] HEAD request failed with status 404, trying GET request...
Sending HEAD request to: https://rai.orange.com/wp-content/uploads/sites/54/2024/02/orange_integratedannualreport_2022_en.pdf/annual_report_2024.pdf
[STRATEGY] HEAD request failed with status 404, trying GET request...
Sending HEAD request to: https://rai.orange.com/wp-content/uploads/sites/54/2024/02/orange_integratedannualreport_2022_en.pdf/financial-report-2025.pdf
[STRATEGY] HEAD request failed with status 404, trying GET request...
Sending HEAD request to: https://rai.orange.com/wp-content/uploads/sites/54/2024/02/orange_integratedannualreport_2022_en.pdf/financial-report-2024.pdf
[STRATEGY] HEAD request failed with status 404, trying GET request...
No results found. Waiting 4.2 seconds before next attempt...
Attempt 2/3 for ORANGE
Retry with more specific European search terms
Searching for: orange europe annual financial report pdf
Sending search request to DuckDuckGo for: orange europe annual financial report pdf
[SUCCESS] Search request successful. Processing results...
[SUCCESS] Found 10 results after filtering
Checking page: https://www.orange.com/en/finance/investors/consolidated-results
Sending HEAD request to: https://www.orange.com/en/finance/investors/consolidated-results/annual-report-2025.pdf
[STRATEGY] HEAD request failed with status 404, trying GET request...
Sending HEAD request to: https://www.orange.com/en/finance/investors/consolidated-results/annual-report-2024.pdf
[STRATEGY] HEAD request failed with status 404, trying GET request...
Sending HEAD request to: https://www.orange.com/en/finance/investors/consolidated-results/annual_report_2025.pdf
[STRATEGY] HEAD request failed with status 404, trying GET request...
Sending HEAD request to: https://www.orange.com/en/finance/investors/consolidated-results/annual_report_2024.pdf
[STRATEGY] HEAD request failed with status 404, trying GET request...
Sending HEAD request to: https://www.orange.com/en/finance/investors/consolidated-results/financial-report-2025.pdf
[STRATEGY] HEAD request failed with status 404, trying GET request...
Sending HEAD request to: https://www.orange.com/en/finance/investors/consolidated-results/financial-report-2024.pdf
[STRATEGY] HEAD request failed with status 404, trying GET request...
Checking page: https://rai.orange.com/wp-content/uploads/sites/54/2024/02/orange_integratedannualreport_2022_en.pdf
Sending HEAD request to: https://rai.orange.com/wp-content/uploads/sites/54/2024/02/orange_integratedannualreport_2022_en.pdf/annual-report-2025.pdf
[STRATEGY] HEAD request failed with status 404, trying GET request...
Sending HEAD request to: https://rai.orange.com/wp-content/uploads/sites/54/2024/02/orange_integratedannualreport_2022_en.pdf/annual-report-2024.pdf
[STRATEGY] HEAD request failed with status 404, trying GET request...
Sending HEAD request to: https://rai.orange.com/wp-content/uploads/sites/54/2024/02/orange_integratedannualreport_2022_en.pdf/annual_report_2025.pdf
[STRATEGY] HEAD request failed with status 404, trying GET request...
Sending HEAD request to: https://rai.orange.com/wp-content/uploads/sites/54/2024/02/orange_integratedannualreport_2022_en.pdf/annual_report_2024.pdf
[STRATEGY] HEAD request failed with status 404, trying GET request...
Sending HEAD request to: https://rai.orange.com/wp-content/uploads/sites/54/2024/02/orange_integratedannualreport_2022_en.pdf/financial-report-2025.pdf
[STRATEGY] HEAD request failed with status 404, trying GET request...
Sending HEAD request to: https://rai.orange.com/wp-content/uploads/sites/54/2024/02/orange_integratedannualreport_2022_en.pdf/financial-report-2024.pdf
[STRATEGY] HEAD request failed with status 404, trying GET request...
Checking page: https://www.orange.com/en/our-integrated-annual-report
Sending HEAD request to: https://www.orange.com/en/our-integrated-annual-report/annual-report-2025.pdf
[STRATEGY] HEAD request failed with status 404, trying GET request...
Sending HEAD request to: https://www.orange.com/en/our-integrated-annual-report/annual-report-2024.pdf
[STRATEGY] HEAD request failed with status 404, trying GET request...
Sending HEAD request to: https://www.orange.com/en/our-integrated-annual-report/annual_report_2025.pdf
[STRATEGY] HEAD request failed with status 404, trying GET request...
Sending HEAD request to: https://www.orange.com/en/our-integrated-annual-report/annual_report_2024.pdf
[STRATEGY] HEAD request failed with status 404, trying GET request...
Sending HEAD request to: https://www.orange.com/en/our-integrated-annual-report/financial-report-2025.pdf
[STRATEGY] HEAD request failed with status 404, trying GET request...
Sending HEAD request to: https://www.orange.com/en/our-integrated-annual-report/financial-report-2024.pdf
[STRATEGY] HEAD request failed with status 404, trying GET request...
No results found. Waiting 3.9 seconds before next attempt...
Attempt 3/3 for ORANGE
Trying direct known patterns for ORANGE
Trying known patterns for ORANGE
No reports found for ORANGE after 3 attempts
Results saved to results/financial_reports.csv
Completed processing ORANGE, found 0 reports
Results saved to results/financial_reports.csv
================================================================================
COMPLETED COMPANY: ORANGE
Current time: 2025-05-14 14:05:50
================================================================================
================================================================================
STARTING COMPANY: ORACLE CORP
Current time: 2025-05-14 14:05:50
================================================================================
Processing company 1/1: ORACLE CORP
Attempt 1/3 for ORACLE CORP

Processing: ORACLE CORP
Searching for: ORACLE CORP annual report pdf
Sending search request to DuckDuckGo for: ORACLE CORP annual report pdf
[SUCCESS] Search request successful. Processing results...
[FILTER] Skipping non-European domain: https://www.sec.gov/Archives/edgar/data/1341439/000095017023028914/orcl-20230531.htm
[SUCCESS] Found 9 results after filtering
Checking page: https://investor.oracle.com/sec-filings/sec-filings-details/default.aspx?FilingId=15043001
Failed to load page: 403
Checking page: https://www.annualreports.com/Company/oracle-corporation
Found 29 reports for ORACLE CORP:
  1. https://www.annualreports.com/HostedData/AnnualReportArchive/o/NYSE_ORCL_2022.pdf (Year: 2022, Score: 8)
  2. https://www.annualreports.com/HostedData/AnnualReportArchive/o/NYSE_ORCL_2021.pdf (Year: 2021, Score: 6)
  3. https://www.annualreports.com/HostedData/AnnualReportArchive/o/NYSE_ORCL_2020.pdf (Year: 2020, Score: 6)
  4. https://www.annualreports.com/HostedData/AnnualReportArchive/o/NYSE_ORCL_2019.pdf (Year: 2019, Score: 3)
  5. https://www.annualreports.com/HostedData/AnnualReportArchive/o/NYSE_ORCL_2018.pdf (Year: 2018, Score: 3)
Results saved to results/financial_reports.csv
Completed processing ORACLE CORP, found 6 reports
Results saved to results/financial_reports.csv
================================================================================
COMPLETED COMPANY: ORACLE CORP
Current time: 2025-05-14 14:05:56
================================================================================
================================================================================
STARTING COMPANY: ACCOR
Current time: 2025-05-14 14:05:56
================================================================================
Processing company 1/1: ACCOR
Attempt 1/3 for ACCOR

Processing: ACCOR
Searching for: ACCOR annual report pdf
Sending search request to DuckDuckGo for: ACCOR annual report pdf
[SUCCESS] Search request successful. Processing results...
[SUCCESS] Found 10 results after filtering
Checking page: https://group.accor.com/en/finance/results-and-publications/financial-result
Failed to load page: 403
Checking page: https://group.accor.com/en/finance
Failed to load page: 403
Checking page: https://quarterlytics.com/company/accor_ac/annual-report-2023/
Sending HEAD request to: https://quarterlytics.com/company/accor_ac/annual-report-2023/annual-report-2025.pdf
[STRATEGY] HEAD request failed with status 404, trying GET request...
Sending HEAD request to: https://quarterlytics.com/company/accor_ac/annual-report-2023/annual-report-2024.pdf
[STRATEGY] HEAD request failed with status 404, trying GET request...
Sending HEAD request to: https://quarterlytics.com/company/accor_ac/annual-report-2023/annual_report_2025.pdf
[STRATEGY] HEAD request failed with status 404, trying GET request...
Sending HEAD request to: https://quarterlytics.com/company/accor_ac/annual-report-2023/annual_report_2024.pdf
[STRATEGY] HEAD request failed with status 404, trying GET request...
Sending HEAD request to: https://quarterlytics.com/company/accor_ac/annual-report-2023/financial-report-2025.pdf
[STRATEGY] HEAD request failed with status 404, trying GET request...
Sending HEAD request to: https://quarterlytics.com/company/accor_ac/annual-report-2023/financial-report-2024.pdf
[STRATEGY] HEAD request failed with status 404, trying GET request...
No results found. Waiting 3.4 seconds before next attempt...
Attempt 2/3 for ACCOR
Retry with more specific European search terms
Searching for: accor europe annual financial report pdf
Sending search request to DuckDuckGo for: accor europe annual financial report pdf
[SUCCESS] Search request successful. Processing results...
[FILTER] Skipping non-European domain: https://uk.investing.com/equities/accor-financial-summary
[SUCCESS] Found 9 results after filtering
Checking page: https://group.accor.com/en/finance/results-and-publications/financial-result
Failed to load page: 403
Checking page: https://group.accor.com/-/media/Corporate/Investors/Documents-financiers/2025/02-20-FY/Accor-2024-Notes-to-Financial-Statements-vdef.pdf?rev=c4eb76b39d2b4f95b225158171e4777b
Sending HEAD request to: https://group.accor.com/-/media/Corporate/Investors/Documents-financiers/2025/02-20-FY/Accor-2024-Notes-to-Financial-Statements-vdef.pdf?rev=c4eb76b39d2b4f95b225158171e4777b/annual-report-2025.pdf
[SUCCESS] Found common pattern match: https://group.accor.com/-/media/Corporate/Investors/Documents-financiers/2025/02-20-FY/Accor-2024-Notes-to-Financial-Statements-vdef.pdf?rev=c4eb76b39d2b4f95b225158171e4777b/annual-report-2025.pdf
Sending HEAD request to: https://group.accor.com/-/media/Corporate/Investors/Documents-financiers/2025/02-20-FY/Accor-2024-Notes-to-Financial-Statements-vdef.pdf?rev=c4eb76b39d2b4f95b225158171e4777b/annual-report-2024.pdf
[SUCCESS] Found common pattern match: https://group.accor.com/-/media/Corporate/Investors/Documents-financiers/2025/02-20-FY/Accor-2024-Notes-to-Financial-Statements-vdef.pdf?rev=c4eb76b39d2b4f95b225158171e4777b/annual-report-2024.pdf
Sending HEAD request to: https://group.accor.com/-/media/Corporate/Investors/Documents-financiers/2025/02-20-FY/Accor-2024-Notes-to-Financial-Statements-vdef.pdf?rev=c4eb76b39d2b4f95b225158171e4777b/annual_report_2025.pdf
[SUCCESS] Found common pattern match: https://group.accor.com/-/media/Corporate/Investors/Documents-financiers/2025/02-20-FY/Accor-2024-Notes-to-Financial-Statements-vdef.pdf?rev=c4eb76b39d2b4f95b225158171e4777b/annual_report_2025.pdf
Sending HEAD request to: https://group.accor.com/-/media/Corporate/Investors/Documents-financiers/2025/02-20-FY/Accor-2024-Notes-to-Financial-Statements-vdef.pdf?rev=c4eb76b39d2b4f95b225158171e4777b/annual_report_2024.pdf
[SUCCESS] Found common pattern match: https://group.accor.com/-/media/Corporate/Investors/Documents-financiers/2025/02-20-FY/Accor-2024-Notes-to-Financial-Statements-vdef.pdf?rev=c4eb76b39d2b4f95b225158171e4777b/annual_report_2024.pdf
Sending HEAD request to: https://group.accor.com/-/media/Corporate/Investors/Documents-financiers/2025/02-20-FY/Accor-2024-Notes-to-Financial-Statements-vdef.pdf?rev=c4eb76b39d2b4f95b225158171e4777b/financial-report-2025.pdf
[SUCCESS] Found common pattern match: https://group.accor.com/-/media/Corporate/Investors/Documents-financiers/2025/02-20-FY/Accor-2024-Notes-to-Financial-Statements-vdef.pdf?rev=c4eb76b39d2b4f95b225158171e4777b/financial-report-2025.pdf
Sending HEAD request to: https://group.accor.com/-/media/Corporate/Investors/Documents-financiers/2025/02-20-FY/Accor-2024-Notes-to-Financial-Statements-vdef.pdf?rev=c4eb76b39d2b4f95b225158171e4777b/financial-report-2024.pdf
[SUCCESS] Found common pattern match: https://group.accor.com/-/media/Corporate/Investors/Documents-financiers/2025/02-20-FY/Accor-2024-Notes-to-Financial-Statements-vdef.pdf?rev=c4eb76b39d2b4f95b225158171e4777b/financial-report-2024.pdf
Found 6 reports for ACCOR:
  1. https://group.accor.com/-/media/Corporate/Investors/Documents-financiers/2025/02-20-FY/Accor-2024-Notes-to-Financial-Statements-vdef.pdf?rev=c4eb76b39d2b4f95b225158171e4777b/annual-report-2025.pdf (Year: 2025, Score: 4)
  2. https://group.accor.com/-/media/Corporate/Investors/Documents-financiers/2025/02-20-FY/Accor-2024-Notes-to-Financial-Statements-vdef.pdf?rev=c4eb76b39d2b4f95b225158171e4777b/annual-report-2024.pdf (Year: 2025, Score: 4)
  3. https://group.accor.com/-/media/Corporate/Investors/Documents-financiers/2025/02-20-FY/Accor-2024-Notes-to-Financial-Statements-vdef.pdf?rev=c4eb76b39d2b4f95b225158171e4777b/annual_report_2025.pdf (Year: 2025, Score: 4)
  4. https://group.accor.com/-/media/Corporate/Investors/Documents-financiers/2025/02-20-FY/Accor-2024-Notes-to-Financial-Statements-vdef.pdf?rev=c4eb76b39d2b4f95b225158171e4777b/annual_report_2024.pdf (Year: 2025, Score: 4)
  5. https://group.accor.com/-/media/Corporate/Investors/Documents-financiers/2025/02-20-FY/Accor-2024-Notes-to-Financial-Statements-vdef.pdf?rev=c4eb76b39d2b4f95b225158171e4777b/financial-report-2025.pdf (Year: 2025, Score: 4)
Results saved to results/financial_reports.csv
Completed processing ACCOR, found 6 reports
Results saved to results/financial_reports.csv
================================================================================
COMPLETED COMPANY: ACCOR
Current time: 2025-05-14 14:06:20
================================================================================
================================================================================
STARTING COMPANY: PROCTER & GAMBLE CO
Current time: 2025-05-14 14:06:20
================================================================================
Processing company 1/1: PROCTER & GAMBLE CO
Attempt 1/3 for PROCTER & GAMBLE CO

Processing: PROCTER & GAMBLE CO
[...]
COMPLETED COMPANY: SANDVIK AKTIEBOLAG
Current time: 2025-05-14 14:51:15
================================================================================
================================================================================
STARTING COMPANY: SKANSKA AB
Current time: 2025-05-14 14:51:15
================================================================================
Processing company 1/1: SKANSKA AB
Attempt 1/3 for SKANSKA AB

Processing: SKANSKA AB
Searching for: SKANSKA AB annual report pdf
Sending search request to DuckDuckGo for: SKANSKA AB annual report pdf
[SUCCESS] Search request successful. Processing results...
[SUCCESS] Found 10 results after filtering
Checking page: https://group.skanska.com/investors/reports-publications/annual-reports/
Found 29 reports for SKANSKA AB:
  1. https://group.skanska.com/49490b/siteassets/investors/reports-publications/annual-reports/2024/annual-and-sustainability-report-2024.pdf (Year: 2024, Score: 8)
  2. https://group.skanska.com/493370/siteassets/investors/reports-publications/annual-reports/2023/annual-and-sustainability-report-2023.pdf (Year: 2023, Score: 8)
  3. https://group.skanska.com/493785/siteassets/investors/reports-publications/annual-reports/2022/annual-and-sustainability-report-2022.pdf (Year: 2022, Score: 8)
  4. https://group.skanska.com/49b28a/siteassets/investors/reports-publications/annual-reports/2021/annual-and-sustainability-report-2021.pdf (Year: 2021, Score: 6)
  5. https://group.skanska.com/4a1971/siteassets/investors/reports-publications/annual-reports/2020/annual-and-sustainability-report-2020.pdf (Year: 2020, Score: 6)
Results saved to results/financial_reports.csv
Completed processing SKANSKA AB, found 6 reports
Results saved to results/financial_reports.csv
================================================================================
COMPLETED COMPANY: SKANSKA AB
Current time: 2025-05-14 14:51:17
================================================================================
================================================================================
STARTING COMPANY: SANOFI
Current time: 2025-05-14 14:51:17
================================================================================
Processing company 1/1: SANOFI
Attempt 1/3 for SANOFI

Processing: SANOFI
Searching for: SANOFI annual report pdf
Sending search request to DuckDuckGo for: SANOFI annual report pdf
[ERROR] Search failed with status code: 403
Searching for: SANOFI annual report pdf European Union
Sending search request to DuckDuckGo for: SANOFI annual report pdf European Union
[ERROR] Search failed with status code: 403
Searching for: sanofi european financial report
Sending search request to DuckDuckGo for: sanofi european financial report
[ERROR] Search failed with status code: 403
Searching for: sanofi europe investor relations annual report
Sending search request to DuckDuckGo for: sanofi europe investor relations annual report
[ERROR] Search failed with status code: 403
Searching for: SANOFI financial statements EU
Sending search request to DuckDuckGo for: SANOFI financial statements EU
[ERROR] Search failed with status code: 403
Searching for: SANOFI European Union annual report
Sending search request to DuckDuckGo for: SANOFI European Union annual report
[ERROR] Search failed with status code: 403
Searching for: sanofi EU headquarters financial report
Sending search request to DuckDuckGo for: sanofi EU headquarters financial report
[ERROR] Search failed with status code: 403
Searching for: SANOFI consolidated annual report Europe
Sending search request to DuckDuckGo for: SANOFI consolidated annual report Europe
[ERROR] Search failed with status code: 403
Could not find investor relations pages for SANOFI
No results found. Waiting 3.2 seconds before next attempt...
Attempt 2/3 for SANOFI
Retry with more specific European search terms
Searching for: sanofi europe annual financial report pdf
Sending search request to DuckDuckGo for: sanofi europe annual financial report pdf
[ERROR] Search failed with status code: 403
No results found. Waiting 4.3 seconds before next attempt...
Attempt 3/3 for SANOFI
Trying direct known patterns for SANOFI
Trying known patterns for SANOFI
No reports found for SANOFI after 3 attempts
Results saved to results/financial_reports.csv
Completed processing SANOFI, found 0 reports
Results saved to results/financial_reports.csv
================================================================================
COMPLETED COMPANY: SANOFI
Current time: 2025-05-14 14:52:06
================================================================================
================================================================================
STARTING COMPANY: WURTH
Current time: 2025-05-14 14:52:06
================================================================================
Processing company 1/1: WURTH
Attempt 1/3 for WURTH

Processing: WURTH
Searching for: WURTH annual report pdf
Sending search request to DuckDuckGo for: WURTH annual report pdf
[ERROR] Search failed with status code: 403
Searching for: WURTH annual report pdf European Union
Sending search request to DuckDuckGo for: WURTH annual report pdf European Union
[ERROR] Search failed with status code: 403
Searching for: wurth european financial report
Sending search request to DuckDuckGo for: wurth european financial report
[ERROR] Search failed with status code: 403
Searching for: wurth europe investor relations annual report
Sending search request to DuckDuckGo for: wurth europe investor relations annual report
[ERROR] Search failed with status code: 403
Searching for: WURTH financial statements EU
Sending search request to DuckDuckGo for: WURTH financial statements EU
[ERROR] Search failed with status code: 403
Searching for: WURTH European Union annual report
Sending search request to DuckDuckGo for: WURTH European Union annual report
[ERROR] Search failed with status code: 403
Searching for: wurth EU headquarters financial report
Sending search request to DuckDuckGo for: wurth EU headquarters financial report
[ERROR] Search failed with status code: 403
Searching for: WURTH consolidated annual report Europe
Sending search request to DuckDuckGo for: WURTH consolidated annual report Europe
[ERROR] Search failed with status code: 403
Could not find investor relations pages for WURTH
No results found. Waiting 3.2 seconds before next attempt...
Attempt 2/3 for WURTH
Retry with more specific European search terms
Searching for: wurth europe annual financial report pdf
Sending search request to DuckDuckGo for: wurth europe annual financial report pdf
[ERROR] Search failed with status code: 403
No results found. Waiting 3.8 seconds before next attempt...
Attempt 3/3 for WURTH
Trying direct known patterns for WURTH
Trying known patterns for WURTH
No reports found for WURTH after 3 attempts
Results saved to results/financial_reports.csv
Completed processing WURTH, found 0 reports
Results saved to results/financial_reports.csv
================================================================================
COMPLETED COMPANY: WURTH
Current time: 2025-05-14 14:52:53
================================================================================
================================================================================
STARTING COMPANY: AKTIEBOLAGET VOLVO
Current time: 2025-05-14 14:52:53
================================================================================
Processing company 1/1: AKTIEBOLAGET VOLVO
Attempt 1/3 for AKTIEBOLAGET VOLVO

Processing: AKTIEBOLAGET VOLVO
Searching for: AKTIEBOLAGET VOLVO annual report pdf
Sending search request to DuckDuckGo for: AKTIEBOLAGET VOLVO annual report pdf
[ERROR] Search failed with status code: 403
Searching for: AKTIEBOLAGET VOLVO annual report pdf European Union
Sending search request to DuckDuckGo for: AKTIEBOLAGET VOLVO annual report pdf European Union
[ERROR] Search failed with status code: 403
Searching for: aktiebolaget volvo european financial report
Sending search request to DuckDuckGo for: aktiebolaget volvo european financial report
[ERROR] Search failed with status code: 403
Searching for: aktiebolaget volvo europe investor relations annual report
Sending search request to DuckDuckGo for: aktiebolaget volvo europe investor relations annual report
[ERROR] Search failed with status code: 403
Searching for: AKTIEBOLAGET VOLVO financial statements EU
Sending search request to DuckDuckGo for: AKTIEBOLAGET VOLVO financial statements EU
[ERROR] Search failed with status code: 403
Searching for: AKTIEBOLAGET VOLVO European Union annual report
Sending search request to DuckDuckGo for: AKTIEBOLAGET VOLVO European Union annual report
[ERROR] Search failed with status code: 403
Searching for: aktiebolaget volvo EU headquarters financial report
Sending search request to DuckDuckGo for: aktiebolaget volvo EU headquarters financial report
[ERROR] Search failed with status code: 403
Searching for: AKTIEBOLAGET VOLVO consolidated annual report Europe
Sending search request to DuckDuckGo for: AKTIEBOLAGET VOLVO consolidated annual report Europe
[ERROR] Search failed with status code: 403
Could not find investor relations pages for AKTIEBOLAGET VOLVO
No results found. Waiting 5.0 seconds before next attempt...
Attempt 2/3 for AKTIEBOLAGET VOLVO
Retry with more specific European search terms
Searching for: aktiebolaget volvo europe annual financial report pdf
Sending search request to DuckDuckGo for: aktiebolaget volvo europe annual financial report pdf
[ERROR] Search failed with status code: 403
No results found. Waiting 3.0 seconds before next attempt...
Attempt 3/3 for AKTIEBOLAGET VOLVO
Trying direct known patterns for AKTIEBOLAGET VOLVO
Trying known patterns for AKTIEBOLAGET VOLVO
No reports found for AKTIEBOLAGET VOLVO after 3 attempts
Results saved to results/financial_reports.csv
Completed processing AKTIEBOLAGET VOLVO, found 0 reports
Results saved to results/financial_reports.csv
================================================================================
COMPLETED COMPANY: AKTIEBOLAGET VOLVO
Current time: 2025-05-14 14:53:43
================================================================================
Results saved to results/batch_12.csv

Pausing for 3 minutes before next batch...
  3 minutes 0 seconds remaining...
  2 minutes 30 seconds remaining...
  2 minutes 0 seconds remaining...
  1 minutes 30 seconds remaining...
  1 minutes 0 seconds remaining...
  0 minutes 30 seconds remaining...

Processing batch 13 of 40
Companies in this batch: TOTALENERGIES SE, BRITISH AMERICAN TOBACCO PLC, NIPPON STEEL CORPORATION, KONINKLIJKE AHOLD DELHAIZE NV, PFIZER INC
================================================================================
STARTING COMPANY: TOTALENERGIES SE
Current time: 2025-05-14 14:56:43
================================================================================
Processing company 1/1: TOTALENERGIES SE
Attempt 1/3 for TOTALENERGIES SE

Processing: TOTALENERGIES SE
Searching for: TOTALENERGIES SE annual report pdf
Sending search request to DuckDuckGo for: TOTALENERGIES SE annual report pdf
[ERROR] Search failed with status code: 403
Searching for: TOTALENERGIES SE annual report pdf European Union
Sending search request to DuckDuckGo for: TOTALENERGIES SE annual report pdf European Union
[ERROR] Search failed with status code: 403
Searching for: totalenergies se european financial report
Sending search request to DuckDuckGo for: totalenergies se european financial report
[ERROR] Search failed with status code: 403
Searching for: totalenergies se europe investor relations annual report
Sending search request to DuckDuckGo for: totalenergies se europe investor relations annual report
[ERROR] Search failed with status code: 403
Searching for: TOTALENERGIES SE financial statements EU
Sending search request to DuckDuckGo for: TOTALENERGIES SE financial statements EU
[ERROR] Search failed with status code: 403
Searching for: TOTALENERGIES SE European Union annual report
Sending search request to DuckDuckGo for: TOTALENERGIES SE European Union annual report
[ERROR] Search failed with status code: 403
Searching for: totalenergies se EU headquarters financial report
Sending search request to DuckDuckGo for: totalenergies se EU headquarters financial report
[ERROR] Search failed with status code: 403
Searching for: TOTALENERGIES SE consolidated annual report Europe
Sending search request to DuckDuckGo for: TOTALENERGIES SE consolidated annual report Europe
[ERROR] Search failed with status code: 403
Could not find investor relations pages for TOTALENERGIES SE
No results found. Waiting 4.4 seconds before next attempt...
Attempt 2/3 for TOTALENERGIES SE
Retry with more specific European search terms
Searching for: totalenergies se europe annual financial report pdf
Sending search request to DuckDuckGo for: totalenergies se europe annual financial report pdf
[ERROR] Search failed with status code: 403
No results found. Waiting 3.3 seconds before next attempt...
Attempt 3/3 for TOTALENERGIES SE
Trying direct known patterns for TOTALENERGIES SE
Trying known patterns for TOTALENERGIES SE
No reports found for TOTALENERGIES SE after 3 attempts
Results saved to results/financial_reports.csv
Completed processing TOTALENERGIES SE, found 0 reports
Results saved to results/financial_reports.csv
================================================================================
COMPLETED COMPANY: TOTALENERGIES SE
Current time: 2025-05-14 14:57:32
================================================================================
================================================================================
STARTING COMPANY: BRITISH AMERICAN TOBACCO PLC
Current time: 2025-05-14 14:57:32
================================================================================
Processing company 1/1: BRITISH AMERICAN TOBACCO PLC
Attempt 1/3 for BRITISH AMERICAN TOBACCO PLC

Processing: BRITISH AMERICAN TOBACCO PLC
Searching for: BRITISH AMERICAN TOBACCO PLC annual report pdf
Sending search request to DuckDuckGo for: BRITISH AMERICAN TOBACCO PLC annual report pdf
[ERROR] Search failed with status code: 403
Searching for: BRITISH AMERICAN TOBACCO PLC annual report pdf European Union
Sending search request to DuckDuckGo for: BRITISH AMERICAN TOBACCO PLC annual report pdf European Union
[ERROR] Search failed with status code: 403
Searching for: british american tobacco european financial report
Sending search request to DuckDuckGo for: british american tobacco european financial report
[ERROR] Search failed with status code: 403
Searching for: british american tobacco europe investor relations annual report
Sending search request to DuckDuckGo for: british american tobacco europe investor relations annual report
[ERROR] Search failed with status code: 403
Searching for: BRITISH AMERICAN TOBACCO PLC financial statements EU
Sending search request to DuckDuckGo for: BRITISH AMERICAN TOBACCO PLC financial statements EU
[ERROR] Search failed with status code: 403
Searching for: BRITISH AMERICAN TOBACCO PLC European Union annual report
Sending search request to DuckDuckGo for: BRITISH AMERICAN TOBACCO PLC European Union annual report
[ERROR] Search failed with status code: 403
Searching for: british american tobacco EU headquarters financial report
Sending search request to DuckDuckGo for: british american tobacco EU headquarters financial report
[ERROR] Search failed with status code: 403
Searching for: BRITISH AMERICAN TOBACCO PLC consolidated annual report Europe
Sending search request to DuckDuckGo for: BRITISH AMERICAN TOBACCO PLC consolidated annual report Europe
[ERROR] Search failed with status code: 403
Could not find investor relations pages for BRITISH AMERICAN TOBACCO PLC
No results found. Waiting 4.7 seconds before next attempt...
Attempt 2/3 for BRITISH AMERICAN TOBACCO PLC
Retry with more specific European search terms
Searching for: british american tobacco europe annual financial report pdf
Sending search request to DuckDuckGo for: british american tobacco europe annual financial report pdf
[ERROR] Search failed with status code: 403
No results found. Waiting 4.7 seconds before next attempt...
Attempt 3/3 for BRITISH AMERICAN TOBACCO PLC
Trying direct known patterns for BRITISH AMERICAN TOBACCO PLC
Trying known patterns for BRITISH AMERICAN TOBACCO PLC
Matched company pattern: BRITISH AMERICAN TOBACCO PLC
Found direct match: https://www.bat.com/ar/2024
Found 1 reports for BRITISH AMERICAN TOBACCO PLC:
  1. https://www.bat.com/ar/2024 (Year: 2024, Score: 10)
Results saved to results/financial_reports.csv
Completed processing BRITISH AMERICAN TOBACCO PLC, found 1 reports
Results saved to results/financial_reports.csv
================================================================================
COMPLETED COMPANY: BRITISH AMERICAN TOBACCO PLC
Current time: 2025-05-14 14:58:27
================================================================================
================================================================================
STARTING COMPANY: NIPPON STEEL CORPORATION
Current time: 2025-05-14 14:58:27
================================================================================
Processing company 1/1: NIPPON STEEL CORPORATION
Attempt 1/3 for NIPPON STEEL CORPORATION

Processing: NIPPON STEEL CORPORATION
Searching for: NIPPON STEEL CORPORATION annual report pdf
Sending search request to DuckDuckGo for: NIPPON STEEL CORPORATION annual report pdf
[ERROR] Search failed with status code: 403
Searching for: NIPPON STEEL CORPORATION annual report pdf European Union
Sending search request to DuckDuckGo for: NIPPON STEEL CORPORATION annual report pdf European Union
[ERROR] Search failed with status code: 403
Searching for: nippon steel corporation european financial report
Sending search request to DuckDuckGo for: nippon steel corporation european financial report
[ERROR] Search failed with status code: 403
Searching for: nippon steel corporation europe investor relations annual report
Sending search request to DuckDuckGo for: nippon steel corporation europe investor relations annual report
[ERROR] Search failed with status code: 403
Searching for: NIPPON STEEL CORPORATION financial statements EU
Sending search request to DuckDuckGo for: NIPPON STEEL CORPORATION financial statements EU
[ERROR] Search failed with status code: 403
Searching for: NIPPON STEEL CORPORATION European Union annual report
Sending search request to DuckDuckGo for: NIPPON STEEL CORPORATION European Union annual report
[ERROR] Search failed with status code: 403
Searching for: nippon steel corporation EU headquarters financial report
Sending search request to DuckDuckGo for: nippon steel corporation EU headquarters financial report
[ERROR] Search failed with status code: 403
Searching for: NIPPON STEEL CORPORATION consolidated annual report Europe
Sending search request to DuckDuckGo for: NIPPON STEEL CORPORATION consolidated annual report Europe
[ERROR] Search failed with status code: 403
Could not find investor relations pages for NIPPON STEEL CORPORATION
No results found. Waiting 4.2 seconds before next attempt...
Attempt 2/3 for NIPPON STEEL CORPORATION
Retry with more specific European search terms
Searching for: nippon steel corporation europe annual financial report pdf
Sending search request to DuckDuckGo for: nippon steel corporation europe annual financial report pdf
[ERROR] Search failed with status code: 403
No results found. Waiting 4.7 seconds before next attempt...
Attempt 3/3 for NIPPON STEEL CORPORATION
Trying direct known patterns for NIPPON STEEL CORPORATION
Trying known patterns for NIPPON STEEL CORPORATION
No reports found for NIPPON STEEL CORPORATION after 3 attempts
Results saved to results/financial_reports.csv
Completed processing NIPPON STEEL CORPORATION, found 0 reports
Results saved to results/financial_reports.csv
================================================================================
COMPLETED COMPANY: NIPPON STEEL CORPORATION
